.subckt basic vdd gnd a gnd o vdd

X_1_ a _0_ vdd gnd INVX1
X_2_ vdd gnd _0_ o BUFX2

.ends
.end
