*SPICE netlist created from verilog structural netlist module map9v3 by vlog2Spice (qflow)
*This file may contain array delimiters, not for use in simulation.

** Start of included library /usr/local/share/qflow/tech/osu035/osu035_stdcells.sp

.subckt AND2X1 Y B vdd gnd A
M0 a_2_6# A vdd vdd pfet w=4u l=0.4u
+ ad=0p pd=0u as=0p ps=0u 
M1 vdd B a_2_6# vdd pfet w=4u l=0.4u
+ ad=0p pd=0u as=0p ps=0u 
M2 Y a_2_6# vdd vdd pfet w=4u l=0.4u
+ ad=0p pd=0u as=0p ps=0u 
M3 a_9_6# A a_2_6# gnd nfet w=4u l=0.4u
+ ad=0p pd=0u as=0p ps=0u 
M4 gnd B a_9_6# gnd nfet w=4u l=0.4u
+ ad=0p pd=0u as=0p ps=0u 
M5 Y a_2_6# gnd gnd nfet w=2u l=0.4u
+ ad=0p pd=0u as=0p ps=0u 
.ends AND2X1

.subckt AND2X2 vdd gnd A B Y
M0 a_2_6# A vdd vdd pfet w=4u l=0.4u
+ ad=0p pd=0u as=0p ps=0u 
M1 vdd B a_2_6# vdd pfet w=4u l=0.4u
+ ad=0p pd=0u as=0p ps=0u 
M2 Y a_2_6# vdd vdd pfet w=8u l=0.4u
+ ad=0p pd=0u as=0p ps=0u 
M3 a_9_6# A a_2_6# gnd nfet w=4u l=0.4u
+ ad=0p pd=0u as=0p ps=0u 
M4 gnd B a_9_6# gnd nfet w=4u l=0.4u
+ ad=0p pd=0u as=0p ps=0u 
M5 Y a_2_6# gnd gnd nfet w=4u l=0.4u
+ ad=0p pd=0u as=0p ps=0u 
.ends AND2X2

.subckt AOI21X1 gnd vdd A B Y C
M0 vdd A a_2_54# vdd pfet w=8u l=0.4u
+ ad=0p pd=0u as=0p ps=0u 
M1 a_2_54# B vdd vdd pfet w=8u l=0.4u
+ ad=0p pd=0u as=0p ps=0u 
M2 Y C a_2_54# vdd pfet w=8u l=0.4u
+ ad=0p pd=0u as=0p ps=0u 
M3 a_12_6# A gnd gnd nfet w=4u l=0.4u
+ ad=0p pd=0u as=0p ps=0u 
M4 Y B a_12_6# gnd nfet w=4u l=0.4u
+ ad=0p pd=0u as=0p ps=0u 
M5 gnd C Y gnd nfet w=2u l=0.4u
+ ad=0p pd=0u as=0p ps=0u 
.ends AOI21X1

.subckt AOI22X1 gnd vdd C D Y A B
M0 vdd A a_2_54# vdd pfet w=8u l=0.4u
+ ad=0p pd=0u as=0p ps=0u 
M1 a_2_54# B vdd vdd pfet w=8u l=0.4u
+ ad=0p pd=0u as=0p ps=0u 
M2 Y D a_2_54# vdd pfet w=8u l=0.4u
+ ad=0p pd=0u as=0p ps=0u 
M3 a_2_54# C Y vdd pfet w=8u l=0.4u
+ ad=0p pd=0u as=0p ps=0u 
M4 a_11_6# A gnd gnd nfet w=4u l=0.4u
+ ad=0p pd=0u as=0p ps=0u 
M5 Y B a_11_6# gnd nfet w=4u l=0.4u
+ ad=0p pd=0u as=0p ps=0u 
M6 a_28_6# D Y gnd nfet w=4u l=0.4u
+ ad=0p pd=0u as=0p ps=0u 
M7 gnd C a_28_6# gnd nfet w=4u l=0.4u
+ ad=0p pd=0u as=0p ps=0u 
.ends AOI22X1

.subckt BUFX2 vdd gnd A Y
M0 vdd A a_2_6# vdd pfet w=4u l=0.4u
+ ad=0p pd=0u as=0p ps=0u 
M1 Y a_2_6# vdd vdd pfet w=8u l=0.4u
+ ad=0p pd=0u as=0p ps=0u 
M2 gnd A a_2_6# gnd nfet w=2u l=0.4u
+ ad=0p pd=0u as=0p ps=0u 
M3 Y a_2_6# gnd gnd nfet w=4u l=0.4u
+ ad=0p pd=0u as=0p ps=0u 
.ends BUFX2

.subckt BUFX4 vdd gnd A Y
M0 vdd A a_2_6# vdd pfet w=6u l=0.4u
+ ad=0p pd=0u as=0p ps=0u 
M1 Y a_2_6# vdd vdd pfet w=8u l=0.4u
+ ad=0p pd=0u as=0p ps=0u 
M2 vdd a_2_6# Y vdd pfet w=8u l=0.4u
+ ad=0p pd=0u as=0p ps=0u 
M3 gnd A a_2_6# gnd nfet w=3u l=0.4u
+ ad=0p pd=0u as=0p ps=0u 
M4 Y a_2_6# gnd gnd nfet w=4u l=0.4u
+ ad=0p pd=0u as=0p ps=0u 
M5 gnd a_2_6# Y gnd nfet w=4u l=0.4u
+ ad=0p pd=0u as=0p ps=0u 
.ends BUFX4

.subckt CLKBUF1 A vdd gnd Y
M0 a_9_6# A vdd vdd pfet w=8u l=0.4u
+ ad=0p pd=0u as=0p ps=0u 
M1 vdd A a_9_6# vdd pfet w=8u l=0.4u
+ ad=0p pd=0u as=0p ps=0u 
M2 a_25_6# a_9_6# vdd vdd pfet w=8u l=0.4u
+ ad=0p pd=0u as=0p ps=0u 
M3 vdd a_9_6# a_25_6# vdd pfet w=8u l=0.4u
+ ad=0p pd=0u as=0p ps=0u 
M4 a_41_6# a_25_6# vdd vdd pfet w=8u l=0.4u
+ ad=0p pd=0u as=0p ps=0u 
M5 vdd a_25_6# a_41_6# vdd pfet w=8u l=0.4u
+ ad=0p pd=0u as=0p ps=0u 
M6 Y a_41_6# vdd vdd pfet w=8u l=0.4u
+ ad=0p pd=0u as=0p ps=0u 
M7 vdd a_41_6# Y vdd pfet w=8u l=0.4u
+ ad=0p pd=0u as=0p ps=0u 
M8 a_9_6# A gnd gnd nfet w=4u l=0.4u
+ ad=0p pd=0u as=0p ps=0u 
M9 gnd A a_9_6# gnd nfet w=4u l=0.4u
+ ad=0p pd=0u as=0p ps=0u 
M10 a_25_6# a_9_6# gnd gnd nfet w=4u l=0.4u
+ ad=0p pd=0u as=0p ps=0u 
M11 gnd a_9_6# a_25_6# gnd nfet w=4u l=0.4u
+ ad=0p pd=0u as=0p ps=0u 
M12 a_41_6# a_25_6# gnd gnd nfet w=4u l=0.4u
+ ad=0p pd=0u as=0p ps=0u 
M13 gnd a_25_6# a_41_6# gnd nfet w=4u l=0.4u
+ ad=0p pd=0u as=0p ps=0u 
M14 Y a_41_6# gnd gnd nfet w=4u l=0.4u
+ ad=0p pd=0u as=0p ps=0u 
M15 gnd a_41_6# Y gnd nfet w=4u l=0.4u
+ ad=0p pd=0u as=0p ps=0u 
.ends CLKBUF1

.subckt CLKBUF2 vdd gnd A Y
M0 a_9_6# A vdd vdd pfet w=8u l=0.4u
+ ad=0p pd=0u as=0p ps=0u 
M1 vdd A a_9_6# vdd pfet w=8u l=0.4u
+ ad=0p pd=0u as=0p ps=0u 
M2 a_25_6# a_9_6# vdd vdd pfet w=8u l=0.4u
+ ad=0p pd=0u as=0p ps=0u 
M3 vdd a_9_6# a_25_6# vdd pfet w=8u l=0.4u
+ ad=0p pd=0u as=0p ps=0u 
M4 a_41_6# a_25_6# vdd vdd pfet w=8u l=0.4u
+ ad=0p pd=0u as=0p ps=0u 
M5 vdd a_25_6# a_41_6# vdd pfet w=8u l=0.4u
+ ad=0p pd=0u as=0p ps=0u 
M6 a_57_6# a_41_6# vdd vdd pfet w=8u l=0.4u
+ ad=0p pd=0u as=0p ps=0u 
M7 vdd a_41_6# a_57_6# vdd pfet w=8u l=0.4u
+ ad=0p pd=0u as=0p ps=0u 
M8 a_73_6# a_57_6# vdd vdd pfet w=8u l=0.4u
+ ad=0p pd=0u as=0p ps=0u 
M9 vdd a_57_6# a_73_6# vdd pfet w=8u l=0.4u
+ ad=0p pd=0u as=0p ps=0u 
M10 Y a_73_6# vdd vdd pfet w=8u l=0.4u
+ ad=0p pd=0u as=0p ps=0u 
M11 vdd a_73_6# Y vdd pfet w=8u l=0.4u
+ ad=0p pd=0u as=0p ps=0u 
M12 a_9_6# A gnd gnd nfet w=4u l=0.4u
+ ad=0p pd=0u as=0p ps=0u 
M13 gnd A a_9_6# gnd nfet w=4u l=0.4u
+ ad=0p pd=0u as=0p ps=0u 
M14 a_25_6# a_9_6# gnd gnd nfet w=4u l=0.4u
+ ad=0p pd=0u as=0p ps=0u 
M15 gnd a_9_6# a_25_6# gnd nfet w=4u l=0.4u
+ ad=0p pd=0u as=0p ps=0u 
M16 a_41_6# a_25_6# gnd gnd nfet w=4u l=0.4u
+ ad=0p pd=0u as=0p ps=0u 
M17 gnd a_25_6# a_41_6# gnd nfet w=4u l=0.4u
+ ad=0p pd=0u as=0p ps=0u 
M18 a_57_6# a_41_6# gnd gnd nfet w=4u l=0.4u
+ ad=0p pd=0u as=0p ps=0u 
M19 gnd a_41_6# a_57_6# gnd nfet w=4u l=0.4u
+ ad=0p pd=0u as=0p ps=0u 
M20 a_73_6# a_57_6# gnd gnd nfet w=4u l=0.4u
+ ad=0p pd=0u as=0p ps=0u 
M21 gnd a_57_6# a_73_6# gnd nfet w=4u l=0.4u
+ ad=0p pd=0u as=0p ps=0u 
M22 Y a_73_6# gnd gnd nfet w=4u l=0.4u
+ ad=0p pd=0u as=0p ps=0u 
M23 gnd a_73_6# Y gnd nfet w=4u l=0.4u
+ ad=0p pd=0u as=0p ps=0u 
.ends CLKBUF2

.subckt CLKBUF3 gnd vdd A Y
M0 a_9_6# A vdd vdd pfet w=8u l=0.4u
+ ad=0p pd=0u as=0p ps=0u 
M1 vdd A a_9_6# vdd pfet w=8u l=0.4u
+ ad=0p pd=0u as=0p ps=0u 
M2 a_25_6# a_9_6# vdd vdd pfet w=8u l=0.4u
+ ad=0p pd=0u as=0p ps=0u 
M3 vdd a_9_6# a_25_6# vdd pfet w=8u l=0.4u
+ ad=0p pd=0u as=0p ps=0u 
M4 a_41_6# a_25_6# vdd vdd pfet w=8u l=0.4u
+ ad=0p pd=0u as=0p ps=0u 
M5 vdd a_25_6# a_41_6# vdd pfet w=8u l=0.4u
+ ad=0p pd=0u as=0p ps=0u 
M6 a_57_6# a_41_6# vdd vdd pfet w=8u l=0.4u
+ ad=0p pd=0u as=0p ps=0u 
M7 vdd a_41_6# a_57_6# vdd pfet w=8u l=0.4u
+ ad=0p pd=0u as=0p ps=0u 
M8 a_73_6# a_57_6# vdd vdd pfet w=8u l=0.4u
+ ad=0p pd=0u as=0p ps=0u 
M9 vdd a_57_6# a_73_6# vdd pfet w=8u l=0.4u
+ ad=0p pd=0u as=0p ps=0u 
M10 a_89_6# a_73_6# vdd vdd pfet w=8u l=0.4u
+ ad=0p pd=0u as=0p ps=0u 
M11 vdd a_73_6# a_89_6# vdd pfet w=8u l=0.4u
+ ad=0p pd=0u as=0p ps=0u 
M12 a_105_6# a_89_6# vdd vdd pfet w=8u l=0.4u
+ ad=0p pd=0u as=0p ps=0u 
M13 vdd a_89_6# a_105_6# vdd pfet w=8u l=0.4u
+ ad=0p pd=0u as=0p ps=0u 
M14 Y a_105_6# vdd vdd pfet w=8u l=0.4u
+ ad=0p pd=0u as=0p ps=0u 
M15 vdd a_105_6# Y vdd pfet w=8u l=0.4u
+ ad=0p pd=0u as=0p ps=0u 
M16 a_9_6# A gnd gnd nfet w=4u l=0.4u
+ ad=0p pd=0u as=0p ps=0u 
M17 gnd A a_9_6# gnd nfet w=4u l=0.4u
+ ad=0p pd=0u as=0p ps=0u 
M18 a_25_6# a_9_6# gnd gnd nfet w=4u l=0.4u
+ ad=0p pd=0u as=0p ps=0u 
M19 gnd a_9_6# a_25_6# gnd nfet w=4u l=0.4u
+ ad=0p pd=0u as=0p ps=0u 
M20 a_41_6# a_25_6# gnd gnd nfet w=4u l=0.4u
+ ad=0p pd=0u as=0p ps=0u 
M21 gnd a_25_6# a_41_6# gnd nfet w=4u l=0.4u
+ ad=0p pd=0u as=0p ps=0u 
M22 a_57_6# a_41_6# gnd gnd nfet w=4u l=0.4u
+ ad=0p pd=0u as=0p ps=0u 
M23 gnd a_41_6# a_57_6# gnd nfet w=4u l=0.4u
+ ad=0p pd=0u as=0p ps=0u 
M24 a_73_6# a_57_6# gnd gnd nfet w=4u l=0.4u
+ ad=0p pd=0u as=0p ps=0u 
M25 gnd a_57_6# a_73_6# gnd nfet w=4u l=0.4u
+ ad=0p pd=0u as=0p ps=0u 
M26 a_89_6# a_73_6# gnd gnd nfet w=4u l=0.4u
+ ad=0p pd=0u as=0p ps=0u 
M27 gnd a_73_6# a_89_6# gnd nfet w=4u l=0.4u
+ ad=0p pd=0u as=0p ps=0u 
M28 a_105_6# a_89_6# gnd gnd nfet w=4u l=0.4u
+ ad=0p pd=0u as=0p ps=0u 
M29 gnd a_89_6# a_105_6# gnd nfet w=4u l=0.4u
+ ad=0p pd=0u as=0p ps=0u 
M30 Y a_105_6# gnd gnd nfet w=4u l=0.4u
+ ad=0p pd=0u as=0p ps=0u 
M31 gnd a_105_6# Y gnd nfet w=4u l=0.4u
+ ad=0p pd=0u as=0p ps=0u 
.ends CLKBUF3

.subckt DFFNEGX1 CLK vdd D gnd Q
M0 vdd CLK a_2_6# vdd pfet w=8u l=0.4u
+ ad=0p pd=0u as=0p ps=0u 
M1 a_17_74# D vdd vdd pfet w=4u l=0.4u
+ ad=0p pd=0u as=0p ps=0u 
M2 a_23_6# a_2_6# a_17_74# vdd pfet w=4u l=0.4u
+ ad=0p pd=0u as=0p ps=0u 
M3 a_31_74# CLK a_23_6# vdd pfet w=4u l=0.4u
+ ad=0p pd=0u as=0p ps=0u 
M4 vdd a_34_4# a_31_74# vdd pfet w=4u l=0.4u
+ ad=0p pd=0u as=0p ps=0u 
M5 a_34_4# a_23_6# vdd vdd pfet w=4u l=0.4u
+ ad=0p pd=0u as=0p ps=0u 
M6 a_61_74# a_34_4# vdd vdd pfet w=4u l=0.4u
+ ad=0p pd=0u as=0p ps=0u 
M7 a_66_6# CLK a_61_74# vdd pfet w=4u l=0.4u
+ ad=0p pd=0u as=0p ps=0u 
M8 a_76_84# a_2_6# a_66_6# vdd pfet w=2u l=0.4u
+ ad=0p pd=0u as=0p ps=0u 
M9 vdd Q a_76_84# vdd pfet w=2u l=0.4u
+ ad=0p pd=0u as=0p ps=0u 
M10 gnd CLK a_2_6# gnd nfet w=4u l=0.4u
+ ad=0p pd=0u as=0p ps=0u 
M11 Q a_66_6# vdd vdd pfet w=8u l=0.4u
+ ad=0p pd=0u as=0p ps=0u 
M12 a_17_6# D gnd gnd nfet w=2u l=0.4u
+ ad=0p pd=0u as=0p ps=0u 
M13 a_23_6# CLK a_17_6# gnd nfet w=2u l=0.4u
+ ad=0p pd=0u as=0p ps=0u 
M14 a_31_6# a_2_6# a_23_6# gnd nfet w=2u l=0.4u
+ ad=0p pd=0u as=0p ps=0u 
M15 gnd a_34_4# a_31_6# gnd nfet w=2u l=0.4u
+ ad=0p pd=0u as=0p ps=0u 
M16 a_34_4# a_23_6# gnd gnd nfet w=2u l=0.4u
+ ad=0p pd=0u as=0p ps=0u 
M17 a_61_6# a_34_4# gnd gnd nfet w=2u l=0.4u
+ ad=0p pd=0u as=0p ps=0u 
M18 a_66_6# a_2_6# a_61_6# gnd nfet w=2u l=0.4u
+ ad=0p pd=0u as=0p ps=0u 
M19 a_76_6# CLK a_66_6# gnd nfet w=2u l=0.4u
+ ad=0p pd=0u as=0p ps=0u 
M20 gnd Q a_76_6# gnd nfet w=2u l=0.4u
+ ad=0p pd=0u as=0p ps=0u 
M21 Q a_66_6# gnd gnd nfet w=4u l=0.4u
+ ad=0p pd=0u as=0p ps=0u 
.ends DFFNEGX1

.subckt DFFPOSX1 vdd D gnd Q CLK
M0 vdd CLK a_2_6# vdd pfet w=8u l=0.4u
+ ad=0p pd=0u as=0p ps=0u 
M1 a_17_74# D vdd vdd pfet w=4u l=0.4u
+ ad=0p pd=0u as=0p ps=0u 
M2 a_22_6# CLK a_17_74# vdd pfet w=4u l=0.4u
+ ad=0p pd=0u as=0p ps=0u 
M3 a_31_74# a_2_6# a_22_6# vdd pfet w=4u l=0.4u
+ ad=0p pd=0u as=0p ps=0u 
M4 vdd a_34_4# a_31_74# vdd pfet w=4u l=0.4u
+ ad=0p pd=0u as=0p ps=0u 
M5 a_34_4# a_22_6# vdd vdd pfet w=4u l=0.4u
+ ad=0p pd=0u as=0p ps=0u 
M6 a_61_74# a_34_4# vdd vdd pfet w=4u l=0.4u
+ ad=0p pd=0u as=0p ps=0u 
M7 a_66_6# a_2_6# a_61_74# vdd pfet w=4u l=0.4u
+ ad=0p pd=0u as=0p ps=0u 
M8 a_76_84# CLK a_66_6# vdd pfet w=2u l=0.4u
+ ad=0p pd=0u as=0p ps=0u 
M9 vdd Q a_76_84# vdd pfet w=2u l=0.4u
+ ad=0p pd=0u as=0p ps=0u 
M10 gnd CLK a_2_6# gnd nfet w=4u l=0.4u
+ ad=0p pd=0u as=0p ps=0u 
M11 Q a_66_6# vdd vdd pfet w=8u l=0.4u
+ ad=0p pd=0u as=0p ps=0u 
M12 a_17_6# D gnd gnd nfet w=2u l=0.4u
+ ad=0p pd=0u as=0p ps=0u 
M13 a_22_6# a_2_6# a_17_6# gnd nfet w=2u l=0.4u
+ ad=0p pd=0u as=0p ps=0u 
M14 a_31_6# CLK a_22_6# gnd nfet w=2u l=0.4u
+ ad=0p pd=0u as=0p ps=0u 
M15 gnd a_34_4# a_31_6# gnd nfet w=2u l=0.4u
+ ad=0p pd=0u as=0p ps=0u 
M16 a_34_4# a_22_6# gnd gnd nfet w=2u l=0.4u
+ ad=0p pd=0u as=0p ps=0u 
M17 a_61_6# a_34_4# gnd gnd nfet w=2u l=0.4u
+ ad=0p pd=0u as=0p ps=0u 
M18 a_66_6# CLK a_61_6# gnd nfet w=2u l=0.4u
+ ad=0p pd=0u as=0p ps=0u 
M19 a_76_6# a_2_6# a_66_6# gnd nfet w=2u l=0.4u
+ ad=0p pd=0u as=0p ps=0u 
M20 gnd Q a_76_6# gnd nfet w=2u l=0.4u
+ ad=0p pd=0u as=0p ps=0u 
M21 Q a_66_6# gnd gnd nfet w=4u l=0.4u
+ ad=0p pd=0u as=0p ps=0u 
.ends DFFPOSX1

.subckt DFFSR gnd vdd D S R Q CLK
M0 a_2_6# R vdd vdd pfet w=4u l=0.4u
+ ad=0p pd=0u as=0p ps=0u 
M1 vdd a_10_61# a_2_6# vdd pfet w=4u l=0.4u
+ ad=0p pd=0u as=0p ps=0u 
M2 a_10_61# a_23_27# vdd vdd pfet w=4u l=0.4u
+ ad=0p pd=0u as=0p ps=0u 
M3 vdd S a_10_61# vdd pfet w=4u l=0.4u
+ ad=0p pd=0u as=0p ps=0u 
M4 a_23_27# a_47_71# a_2_6# vdd pfet w=2u l=0.4u
+ ad=0p pd=0u as=0p ps=0u 
M5 a_57_6# a_47_4# a_23_27# vdd pfet w=2u l=0.4u
+ ad=0p pd=0u as=0p ps=0u 
M6 vdd D a_57_6# vdd pfet w=4u l=0.4u
+ ad=0p pd=0u as=0p ps=0u 
M7 vdd a_47_71# a_47_4# vdd pfet w=4u l=0.4u
+ ad=0p pd=0u as=0p ps=0u 
M8 a_47_71# CLK vdd vdd pfet w=4u l=0.4u
+ ad=0p pd=0u as=0p ps=0u 
M9 a_105_6# a_47_71# a_10_61# vdd pfet w=2u l=0.4u
+ ad=0p pd=0u as=0p ps=0u 
M10 a_113_6# a_47_4# a_105_6# vdd pfet w=2u l=0.4u
+ ad=0p pd=0u as=0p ps=0u 
M11 a_122_6# a_105_6# vdd vdd pfet w=4u l=0.4u
+ ad=0p pd=0u as=0p ps=0u 
M12 vdd R a_122_6# vdd pfet w=4u l=0.4u
+ ad=0p pd=0u as=0p ps=0u 
M13 a_113_6# a_122_6# vdd vdd pfet w=4u l=0.4u
+ ad=0p pd=0u as=0p ps=0u 
M14 vdd S a_113_6# vdd pfet w=4u l=0.4u
+ ad=0p pd=0u as=0p ps=0u 
M15 vdd a_122_6# Q vdd pfet w=4u l=0.4u
+ ad=0p pd=0u as=0p ps=0u 
M16 a_10_6# R a_2_6# gnd nfet w=4u l=0.4u
+ ad=0p pd=0u as=0p ps=0u 
M17 gnd a_10_61# a_10_6# gnd nfet w=4u l=0.4u
+ ad=0p pd=0u as=0p ps=0u 
M18 a_26_6# a_23_27# gnd gnd nfet w=4u l=0.4u
+ ad=0p pd=0u as=0p ps=0u 
M19 a_10_61# S a_26_6# gnd nfet w=4u l=0.4u
+ ad=0p pd=0u as=0p ps=0u 
M20 a_23_27# a_47_4# a_2_6# gnd nfet w=2u l=0.4u
+ ad=0p pd=0u as=0p ps=0u 
M21 a_57_6# a_47_71# a_23_27# gnd nfet w=2u l=0.4u
+ ad=0p pd=0u as=0p ps=0u 
M22 gnd D a_57_6# gnd nfet w=2u l=0.4u
+ ad=0p pd=0u as=0p ps=0u 
M23 gnd a_47_71# a_47_4# gnd nfet w=2u l=0.4u
+ ad=0p pd=0u as=0p ps=0u 
M24 a_47_71# CLK gnd gnd nfet w=2u l=0.4u
+ ad=0p pd=0u as=0p ps=0u 
M25 a_105_6# a_47_4# a_10_61# gnd nfet w=2u l=0.4u
+ ad=0p pd=0u as=0p ps=0u 
M26 a_113_6# a_47_71# a_105_6# gnd nfet w=2u l=0.4u
+ ad=0p pd=0u as=0p ps=0u 
M27 a_130_6# a_105_6# a_122_6# gnd nfet w=4u l=0.4u
+ ad=0p pd=0u as=0p ps=0u 
M28 gnd R a_130_6# gnd nfet w=4u l=0.4u
+ ad=0p pd=0u as=0p ps=0u 
M29 a_146_6# a_122_6# gnd gnd nfet w=4u l=0.4u
+ ad=0p pd=0u as=0p ps=0u 
M30 a_113_6# S a_146_6# gnd nfet w=4u l=0.4u
+ ad=0p pd=0u as=0p ps=0u 
M31 gnd a_122_6# Q gnd nfet w=2u l=0.4u
+ ad=0p pd=0u as=0p ps=0u 
.ends DFFSR

.subckt FAX1 gnd vdd A B C YC YS
M0 vdd A a_2_54# vdd pfet w=8u l=0.4u
+ ad=0p pd=0u as=0p ps=0u 
M1 a_2_54# B vdd vdd pfet w=8u l=0.4u
+ ad=0p pd=0u as=0p ps=0u 
M2 a_25_6# C a_2_54# vdd pfet w=8u l=0.4u
+ ad=0p pd=0u as=0p ps=0u 
M3 a_33_54# B a_25_6# vdd pfet w=8u l=0.4u
+ ad=0p pd=0u as=0p ps=0u 
M4 vdd A a_33_54# vdd pfet w=8u l=0.4u
+ ad=0p pd=0u as=0p ps=0u 
M5 a_46_54# A vdd vdd pfet w=8u l=0.4u
+ ad=0p pd=0u as=0p ps=0u 
M6 vdd B a_46_54# vdd pfet w=7.2u l=0.4u
+ ad=0p pd=0u as=0p ps=0u 
M7 a_46_54# C vdd vdd pfet w=7.2u l=0.4u
+ ad=0p pd=0u as=0p ps=0u 
M8 a_70_6# a_25_6# a_46_54# vdd pfet w=7.2u l=0.4u
+ ad=0p pd=0u as=0p ps=0u 
M9 a_79_46# C a_70_6# vdd pfet w=9.6u l=0.4u
+ ad=0p pd=0u as=0p ps=0u 
M10 a_84_46# B a_79_46# vdd pfet w=9.6u l=0.4u
+ ad=0p pd=0u as=0p ps=0u 
M11 vdd A a_84_46# vdd pfet w=9.6u l=0.4u
+ ad=0p pd=0u as=0p ps=0u 
M12 YS a_70_6# vdd vdd pfet w=4u l=0.4u
+ ad=0p pd=0u as=0p ps=0u 
M13 YC a_25_6# vdd vdd pfet w=4u l=0.4u
+ ad=0p pd=0u as=0p ps=0u 
M14 gnd A a_2_6# gnd nfet w=4u l=0.4u
+ ad=0p pd=0u as=0p ps=0u 
M15 a_2_6# B gnd gnd nfet w=4u l=0.4u
+ ad=0p pd=0u as=0p ps=0u 
M16 a_25_6# C a_2_6# gnd nfet w=4u l=0.4u
+ ad=0p pd=0u as=0p ps=0u 
M17 a_33_6# B a_25_6# gnd nfet w=4u l=0.4u
+ ad=0p pd=0u as=0p ps=0u 
M18 gnd A a_33_6# gnd nfet w=4u l=0.4u
+ ad=0p pd=0u as=0p ps=0u 
M19 a_46_6# A gnd gnd nfet w=4u l=0.4u
+ ad=0p pd=0u as=0p ps=0u 
M20 gnd B a_46_6# gnd nfet w=4u l=0.4u
+ ad=0p pd=0u as=0p ps=0u 
M21 a_46_6# C gnd gnd nfet w=4u l=0.4u
+ ad=0p pd=0u as=0p ps=0u 
M22 a_70_6# a_25_6# a_46_6# gnd nfet w=4u l=0.4u
+ ad=0p pd=0u as=0p ps=0u 
M23 a_79_6# C a_70_6# gnd nfet w=4u l=0.4u
+ ad=0p pd=0u as=0p ps=0u 
M24 a_84_6# B a_79_6# gnd nfet w=4u l=0.4u
+ ad=0p pd=0u as=0p ps=0u 
M25 gnd A a_84_6# gnd nfet w=4u l=0.4u
+ ad=0p pd=0u as=0p ps=0u 
M26 YS a_70_6# gnd gnd nfet w=2u l=0.4u
+ ad=0p pd=0u as=0p ps=0u 
M27 YC a_25_6# gnd gnd nfet w=2u l=0.4u
+ ad=0p pd=0u as=0p ps=0u 
.ends FAX1

.subckt FILL vdd gnd
.ends FILL

.subckt HAX1 vdd gnd YC A B YS
M0 vdd A a_2_74# vdd pfet w=4u l=0.4u
+ ad=0p pd=0u as=0p ps=0u 
M1 a_2_74# B vdd vdd pfet w=4u l=0.4u
+ ad=0p pd=0u as=0p ps=0u 
M2 vdd a_2_74# YC vdd pfet w=4u l=0.4u
+ ad=0p pd=0u as=0p ps=0u 
M3 a_41_74# a_2_74# vdd vdd pfet w=4u l=0.4u
+ ad=0p pd=0u as=0p ps=0u 
M4 a_49_54# B a_41_74# vdd pfet w=8u l=0.4u
+ ad=0p pd=0u as=0p ps=0u 
M5 vdd A a_49_54# vdd pfet w=8u l=0.4u
+ ad=0p pd=0u as=0p ps=0u 
M6 YS a_41_74# vdd vdd pfet w=4u l=0.4u
+ ad=0p pd=0u as=0p ps=0u 
M7 a_9_6# A gnd gnd nfet w=4u l=0.4u
+ ad=0p pd=0u as=0p ps=0u 
M8 a_2_74# B a_9_6# gnd nfet w=4u l=0.4u
+ ad=0p pd=0u as=0p ps=0u 
M9 gnd a_2_74# YC gnd nfet w=2u l=0.4u
+ ad=0p pd=0u as=0p ps=0u 
M10 a_38_6# a_2_74# gnd gnd nfet w=4u l=0.4u
+ ad=0p pd=0u as=0p ps=0u 
M11 a_41_74# B a_38_6# gnd nfet w=4u l=0.4u
+ ad=0p pd=0u as=0p ps=0u 
M12 a_38_6# A a_41_74# gnd nfet w=4u l=0.4u
+ ad=0p pd=0u as=0p ps=0u 
M13 YS a_41_74# gnd gnd nfet w=2u l=0.4u
+ ad=0p pd=0u as=0p ps=0u 
.ends HAX1

.subckt INVX1 A Y vdd gnd
M0 Y A vdd vdd pfet w=4u l=0.4u
+ ad=0p pd=0u as=0p ps=0u 
M1 Y A gnd gnd nfet w=2u l=0.4u
+ ad=0p pd=0u as=0p ps=0u 
.ends INVX1

.subckt INVX2 vdd gnd Y A
M0 Y A vdd vdd pfet w=8u l=0.4u
+ ad=0p pd=0u as=0p ps=0u 
M1 Y A gnd gnd nfet w=4u l=0.4u
+ ad=0p pd=0u as=0p ps=0u 
.ends INVX2

.subckt INVX4 vdd gnd Y A
M0 Y A vdd vdd pfet w=8u l=0.4u
+ ad=0p pd=0u as=0p ps=0u 
M1 vdd A Y vdd pfet w=8u l=0.4u
+ ad=0p pd=0u as=0p ps=0u 
M2 Y A gnd gnd nfet w=4u l=0.4u
+ ad=0p pd=0u as=0p ps=0u 
M3 gnd A Y gnd nfet w=4u l=0.4u
+ ad=0p pd=0u as=0p ps=0u 
.ends INVX4

.subckt INVX8 vdd gnd A Y
M0 Y A vdd vdd pfet w=8u l=0.4u
+ ad=0p pd=0u as=0p ps=0u 
M1 vdd A Y vdd pfet w=8u l=0.4u
+ ad=0p pd=0u as=0p ps=0u 
M2 Y A vdd vdd pfet w=8u l=0.4u
+ ad=0p pd=0u as=0p ps=0u 
M3 vdd A Y vdd pfet w=8u l=0.4u
+ ad=0p pd=0u as=0p ps=0u 
M4 Y A gnd gnd nfet w=4u l=0.4u
+ ad=0p pd=0u as=0p ps=0u 
M5 gnd A Y gnd nfet w=4u l=0.4u
+ ad=0p pd=0u as=0p ps=0u 
M6 Y A gnd gnd nfet w=4u l=0.4u
+ ad=0p pd=0u as=0p ps=0u 
M7 gnd A Y gnd nfet w=4u l=0.4u
+ ad=0p pd=0u as=0p ps=0u 
.ends INVX8

.subckt LATCH D Q gnd vdd CLK
M0 vdd CLK a_2_6# vdd pfet w=8u l=0.4u
+ ad=0p pd=0u as=0p ps=0u 
M1 a_18_74# D vdd vdd pfet w=4u l=0.4u
+ ad=0p pd=0u as=0p ps=0u 
M2 a_23_6# a_2_6# a_18_74# vdd pfet w=4u l=0.4u
+ ad=0p pd=0u as=0p ps=0u 
M3 a_35_84# CLK a_23_6# vdd pfet w=2u l=0.4u
+ ad=0p pd=0u as=0p ps=0u 
M4 vdd Q a_35_84# vdd pfet w=2u l=0.4u
+ ad=0p pd=0u as=0p ps=0u 
M5 gnd CLK a_2_6# gnd nfet w=4u l=0.4u
+ ad=0p pd=0u as=0p ps=0u 
M6 Q a_23_6# vdd vdd pfet w=8u l=0.4u
+ ad=0p pd=0u as=0p ps=0u 
M7 a_18_6# D gnd gnd nfet w=2u l=0.4u
+ ad=0p pd=0u as=0p ps=0u 
M8 a_23_6# CLK a_18_6# gnd nfet w=2u l=0.4u
+ ad=0p pd=0u as=0p ps=0u 
M9 a_35_6# a_2_6# a_23_6# gnd nfet w=2u l=0.4u
+ ad=0p pd=0u as=0p ps=0u 
M10 gnd Q a_35_6# gnd nfet w=2u l=0.4u
+ ad=0p pd=0u as=0p ps=0u 
M11 Q a_23_6# gnd gnd nfet w=4u l=0.4u
+ ad=0p pd=0u as=0p ps=0u 
.ends LATCH

.subckt MUX2X1 S vdd gnd Y A B
M0 vdd S a_2_10# vdd pfet w=4u l=0.4u
+ ad=0p pd=0u as=0p ps=0u 
M1 a_17_50# B vdd vdd pfet w=8u l=0.4u
+ ad=0p pd=0u as=0p ps=0u 
M2 Y S a_17_50# vdd pfet w=8u l=0.4u
+ ad=0p pd=0u as=0p ps=0u 
M3 a_30_54# a_2_10# Y vdd pfet w=8u l=0.4u
+ ad=0p pd=0u as=0p ps=0u 
M4 vdd A a_30_54# vdd pfet w=8u l=0.4u
+ ad=0p pd=0u as=0p ps=0u 
M5 gnd S a_2_10# gnd nfet w=2u l=0.4u
+ ad=0p pd=0u as=0p ps=0u 
M6 a_17_10# B gnd gnd nfet w=4u l=0.4u
+ ad=0p pd=0u as=0p ps=0u 
M7 Y a_2_10# a_17_10# gnd nfet w=4u l=0.4u
+ ad=0p pd=0u as=0p ps=0u 
M8 a_30_10# S Y gnd nfet w=4u l=0.4u
+ ad=0p pd=0u as=0p ps=0u 
M9 gnd A a_30_10# gnd nfet w=4u l=0.4u
+ ad=0p pd=0u as=0p ps=0u 
.ends MUX2X1

.subckt NAND2X1 vdd Y gnd A B
M0 Y A vdd vdd pfet w=4u l=0.4u
+ ad=0p pd=0u as=0p ps=0u 
M1 vdd B Y vdd pfet w=4u l=0.4u
+ ad=0p pd=0u as=0p ps=0u 
M2 a_9_6# A gnd gnd nfet w=4u l=0.4u
+ ad=0p pd=0u as=0p ps=0u 
M3 Y B a_9_6# gnd nfet w=4u l=0.4u
+ ad=0p pd=0u as=0p ps=0u 
.ends NAND2X1

.subckt NAND3X1 B vdd gnd A C Y
M0 Y A vdd vdd pfet w=4u l=0.4u
+ ad=0p pd=0u as=0p ps=0u 
M1 vdd B Y vdd pfet w=4u l=0.4u
+ ad=0p pd=0u as=0p ps=0u 
M2 Y C vdd vdd pfet w=4u l=0.4u
+ ad=0p pd=0u as=0p ps=0u 
M3 a_9_6# A gnd gnd nfet w=6u l=0.4u
+ ad=0p pd=0u as=0p ps=0u 
M4 a_14_6# B a_9_6# gnd nfet w=6u l=0.4u
+ ad=0p pd=0u as=0p ps=0u 
M5 Y C a_14_6# gnd nfet w=6u l=0.4u
+ ad=0p pd=0u as=0p ps=0u 
.ends NAND3X1

.subckt NOR2X1 vdd B gnd Y A
M0 a_9_54# A vdd vdd pfet w=8u l=0.4u
+ ad=0p pd=0u as=0p ps=0u 
M1 Y B a_9_54# vdd pfet w=8u l=0.4u
+ ad=0p pd=0u as=0p ps=0u 
M2 Y A gnd gnd nfet w=2u l=0.4u
+ ad=0p pd=0u as=0p ps=0u 
M3 gnd B Y gnd nfet w=2u l=0.4u
+ ad=0p pd=0u as=0p ps=0u 
.ends NOR2X1

.subckt NOR3X1 vdd gnd B C A Y
M0 vdd A a_2_64# vdd pfet w=6u l=0.4u
+ ad=0p pd=0u as=0p ps=0u 
M1 a_2_64# A vdd vdd pfet w=6u l=0.4u
+ ad=0p pd=0u as=0p ps=0u 
M2 a_25_64# B a_2_64# vdd pfet w=6u l=0.4u
+ ad=0p pd=0u as=0p ps=0u 
M3 a_2_64# B a_25_64# vdd pfet w=6u l=0.4u
+ ad=0p pd=0u as=0p ps=0u 
M4 Y C a_25_64# vdd pfet w=6u l=0.4u
+ ad=0p pd=0u as=0p ps=0u 
M5 a_25_64# C Y vdd pfet w=6u l=0.4u
+ ad=0p pd=0u as=0p ps=0u 
M6 Y A gnd gnd nfet w=2u l=0.4u
+ ad=0p pd=0u as=0p ps=0u 
M7 gnd B Y gnd nfet w=2u l=0.4u
+ ad=0p pd=0u as=0p ps=0u 
M8 Y C gnd gnd nfet w=2u l=0.4u
+ ad=0p pd=0u as=0p ps=0u 
.ends NOR3X1

.subckt OAI21X1 gnd vdd A B Y C
M0 a_9_54# A vdd vdd pfet w=8u l=0.4u
+ ad=0p pd=0u as=0p ps=0u 
M1 Y B a_9_54# vdd pfet w=8u l=0.4u
+ ad=0p pd=0u as=0p ps=0u 
M2 vdd C Y vdd pfet w=4u l=0.4u
+ ad=0p pd=0u as=0p ps=0u 
M3 gnd A a_2_6# gnd nfet w=4u l=0.4u
+ ad=0p pd=0u as=0p ps=0u 
M4 a_2_6# B gnd gnd nfet w=4u l=0.4u
+ ad=0p pd=0u as=0p ps=0u 
M5 Y C a_2_6# gnd nfet w=4u l=0.4u
+ ad=0p pd=0u as=0p ps=0u 
.ends OAI21X1

.subckt OAI22X1 gnd vdd D C A B Y
M0 a_9_54# A vdd vdd pfet w=8u l=0.4u
+ ad=0p pd=0u as=0p ps=0u 
M1 Y B a_9_54# vdd pfet w=8u l=0.4u
+ ad=0p pd=0u as=0p ps=0u 
M2 a_28_54# D Y vdd pfet w=8u l=0.4u
+ ad=0p pd=0u as=0p ps=0u 
M3 vdd C a_28_54# vdd pfet w=8u l=0.4u
+ ad=0p pd=0u as=0p ps=0u 
M4 gnd A a_2_6# gnd nfet w=4u l=0.4u
+ ad=0p pd=0u as=0p ps=0u 
M5 a_2_6# B gnd gnd nfet w=4u l=0.4u
+ ad=0p pd=0u as=0p ps=0u 
M6 Y D a_2_6# gnd nfet w=4u l=0.4u
+ ad=0p pd=0u as=0p ps=0u 
M7 a_2_6# C Y gnd nfet w=4u l=0.4u
+ ad=0p pd=0u as=0p ps=0u 
.ends OAI22X1

.subckt OR2X1 Y B vdd gnd A
M0 a_9_54# A a_2_54# vdd pfet w=8u l=0.4u
+ ad=0p pd=0u as=0p ps=0u 
M1 vdd B a_9_54# vdd pfet w=8u l=0.4u
+ ad=0p pd=0u as=0p ps=0u 
M2 Y a_2_54# vdd vdd pfet w=4u l=0.4u
+ ad=0p pd=0u as=0p ps=0u 
M3 a_2_54# A gnd gnd nfet w=2u l=0.4u
+ ad=0p pd=0u as=0p ps=0u 
M4 gnd B a_2_54# gnd nfet w=2u l=0.4u
+ ad=0p pd=0u as=0p ps=0u 
M5 Y a_2_54# gnd gnd nfet w=2u l=0.4u
+ ad=0p pd=0u as=0p ps=0u 
.ends OR2X1

.subckt OR2X2 Y B vdd gnd A
M0 a_9_54# A a_2_54# vdd pfet w=8u l=0.4u
+ ad=0p pd=0u as=0p ps=0u 
M1 vdd B a_9_54# vdd pfet w=8u l=0.4u
+ ad=0p pd=0u as=0p ps=0u 
M2 Y a_2_54# vdd vdd pfet w=8u l=0.4u
+ ad=0p pd=0u as=0p ps=0u 
M3 a_2_54# A gnd gnd nfet w=2u l=0.4u
+ ad=0p pd=0u as=0p ps=0u 
M4 gnd B a_2_54# gnd nfet w=2u l=0.4u
+ ad=0p pd=0u as=0p ps=0u 
M5 Y a_2_54# gnd gnd nfet w=4u l=0.4u
+ ad=0p pd=0u as=0p ps=0u 
.ends OR2X2

.subckt PADINC DI vdd2 gnd2 vdd gnd YPAD
M0 vdd2 vdd2 YPAD vdd2 hpfet w=35u l=0.6u
+ ad=0p pd=0u as=0p ps=0u 
M1 vdd2 vdd2 YPAD vdd2 hpfet w=35u l=0.6u
+ ad=0p pd=0u as=0p ps=0u 
M2 YPAD vdd2 vdd2 vdd2 hpfet w=35u l=0.6u
+ ad=0p pd=0u as=0p ps=0u 
M3 YPAD vdd2 vdd2 vdd2 hpfet w=35u l=0.6u
+ ad=0p pd=0u as=0p ps=0u 
M4 vdd2 vdd2 YPAD vdd2 hpfet w=35u l=0.6u
+ ad=0p pd=0u as=0p ps=0u 
M5 vdd2 vdd2 YPAD vdd2 hpfet w=35u l=0.6u
+ ad=0p pd=0u as=0p ps=0u 
M6 YPAD vdd2 vdd2 vdd2 hpfet w=35u l=0.6u
+ ad=0p pd=0u as=0p ps=0u 
M7 YPAD vdd2 vdd2 vdd2 hpfet w=35u l=0.6u
+ ad=0p pd=0u as=0p ps=0u 
M8 vdd2 vdd2 YPAD vdd2 hpfet w=35u l=0.6u
+ ad=0p pd=0u as=0p ps=0u 
M9 vdd2 vdd2 YPAD vdd2 hpfet w=35u l=0.6u
+ ad=0p pd=0u as=0p ps=0u 
M10 YPAD vdd2 vdd2 vdd2 hpfet w=35u l=0.6u
+ ad=0p pd=0u as=0p ps=0u 
M11 YPAD vdd2 vdd2 vdd2 hpfet w=35u l=0.6u
+ ad=0p pd=0u as=0p ps=0u 
M12 vdd2 a_31_658# YPAD vdd2 hpfet w=35u l=0.6u
+ ad=0p pd=0u as=0p ps=0u 
M13 vdd2 a_31_658# YPAD vdd2 hpfet w=35u l=0.6u
+ ad=0p pd=0u as=0p ps=0u 
M14 YPAD a_31_658# vdd2 vdd2 hpfet w=35u l=0.6u
+ ad=0p pd=0u as=0p ps=0u 
M15 YPAD a_31_658# vdd2 vdd2 hpfet w=35u l=0.6u
+ ad=0p pd=0u as=0p ps=0u 
M16 gnd gnd2 a_15_420# gnd hnfet w=6u l=0.6u
+ ad=0p pd=0u as=0p ps=0u 
M17 a_32_420# a_15_420# gnd gnd hnfet w=6u l=0.6u
+ ad=0p pd=0u as=0p ps=0u 
M18 gnd gnd2 a_41_540# gnd hnfet w=6u l=0.6u
+ ad=0p pd=0u as=0p ps=0u 
M19 a_41_540# gnd2 gnd gnd hnfet w=6u l=0.6u
+ ad=0p pd=0u as=0p ps=0u 
M20 gnd gnd2 a_41_540# gnd hnfet w=6u l=0.6u
+ ad=0p pd=0u as=0p ps=0u 
M21 a_41_540# gnd2 gnd gnd hnfet w=6u l=0.6u
+ ad=0p pd=0u as=0p ps=0u 
M22 gnd gnd2 a_41_540# gnd hnfet w=6u l=0.6u
+ ad=0p pd=0u as=0p ps=0u 
M23 a_41_540# a_15_420# gnd gnd hnfet w=6u l=0.6u
+ ad=0p pd=0u as=0p ps=0u 
M24 gnd a_15_420# a_41_540# gnd hnfet w=6u l=0.6u
+ ad=0p pd=0u as=0p ps=0u 
M25 a_41_540# a_15_420# gnd gnd hnfet w=6u l=0.6u
+ ad=0p pd=0u as=0p ps=0u 
M26 gnd a_15_420# a_41_540# gnd hnfet w=6u l=0.6u
+ ad=0p pd=0u as=0p ps=0u 
M27 a_41_540# a_15_420# gnd gnd hnfet w=6u l=0.6u
+ ad=0p pd=0u as=0p ps=0u 
M28 a_41_420# a_32_420# a_41_540# gnd hnfet w=6u l=0.6u
+ ad=0p pd=0u as=0p ps=0u 
M29 a_41_540# a_32_420# a_41_420# gnd hnfet w=6u l=0.6u
+ ad=0p pd=0u as=0p ps=0u 
M30 a_41_420# a_32_420# a_41_540# gnd hnfet w=6u l=0.6u
+ ad=0p pd=0u as=0p ps=0u 
M31 a_41_540# a_32_420# a_41_420# gnd hnfet w=6u l=0.6u
+ ad=0p pd=0u as=0p ps=0u 
M32 gnd a_176_413# a_31_658# gnd hnfet w=6u l=0.6u
+ ad=0p pd=0u as=0p ps=0u 
M33 a_176_413# a_41_420# gnd gnd hnfet w=6u l=0.6u
+ ad=0p pd=0u as=0p ps=0u 
M34 gnd a_202_572# a_31_343# gnd hnfet w=6u l=0.6u
+ ad=0p pd=0u as=0p ps=0u 
M35 a_202_572# a_41_540# gnd gnd hnfet w=6u l=0.6u
+ ad=0p pd=0u as=0p ps=0u 
M36 a_329_420# a_326_417# gnd gnd hnfet w=6u l=0.6u
+ ad=0p pd=0u as=0p ps=0u 
M37 gnd a_326_417# a_329_420# gnd hnfet w=6u l=0.6u
+ ad=0p pd=0u as=0p ps=0u 
M38 a_329_420# a_326_417# gnd gnd hnfet w=6u l=0.6u
+ ad=0p pd=0u as=0p ps=0u 
M39 gnd a_326_417# a_329_420# gnd hnfet w=6u l=0.6u
+ ad=0p pd=0u as=0p ps=0u 
M40 a_329_420# a_326_417# gnd gnd hnfet w=6u l=0.6u
+ ad=0p pd=0u as=0p ps=0u 
M41 gnd a_326_417# a_329_420# gnd hnfet w=6u l=0.6u
+ ad=0p pd=0u as=0p ps=0u 
M42 DI a_329_420# gnd gnd hnfet w=6u l=0.6u
+ ad=0p pd=0u as=0p ps=0u 
M43 gnd a_329_420# DI gnd hnfet w=6u l=0.6u
+ ad=0p pd=0u as=0p ps=0u 
M44 DI a_329_420# gnd gnd hnfet w=6u l=0.6u
+ ad=0p pd=0u as=0p ps=0u 
M45 gnd a_329_420# DI gnd hnfet w=6u l=0.6u
+ ad=0p pd=0u as=0p ps=0u 
M46 DI a_329_420# gnd gnd hnfet w=6u l=0.6u
+ ad=0p pd=0u as=0p ps=0u 
M47 gnd a_329_420# DI gnd hnfet w=6u l=0.6u
+ ad=0p pd=0u as=0p ps=0u 
M48 vdd gnd2 a_15_420# vdd hpfet w=10.4u l=0.6u
+ ad=0p pd=0u as=0p ps=0u 
M49 a_32_420# a_15_420# vdd vdd hpfet w=10.4u l=0.6u
+ ad=0p pd=0u as=0p ps=0u 
M50 vdd gnd2 a_41_420# vdd hpfet w=10.4u l=0.6u
+ ad=0p pd=0u as=0p ps=0u 
M51 a_41_420# gnd2 vdd vdd hpfet w=10.4u l=0.6u
+ ad=0p pd=0u as=0p ps=0u 
M52 vdd gnd2 a_41_420# vdd hpfet w=10.4u l=0.6u
+ ad=0p pd=0u as=0p ps=0u 
M53 a_41_420# gnd2 vdd vdd hpfet w=10.4u l=0.6u
+ ad=0p pd=0u as=0p ps=0u 
M54 vdd gnd2 a_41_420# vdd hpfet w=10.4u l=0.6u
+ ad=0p pd=0u as=0p ps=0u 
M55 a_41_420# a_32_420# vdd vdd hpfet w=10.4u l=0.6u
+ ad=0p pd=0u as=0p ps=0u 
M56 vdd a_32_420# a_41_420# vdd hpfet w=10.4u l=0.6u
+ ad=0p pd=0u as=0p ps=0u 
M57 a_41_420# a_32_420# vdd vdd hpfet w=10.4u l=0.6u
+ ad=0p pd=0u as=0p ps=0u 
M58 vdd a_32_420# a_41_420# vdd hpfet w=10.4u l=0.6u
+ ad=0p pd=0u as=0p ps=0u 
M59 a_41_420# a_32_420# vdd vdd hpfet w=10.4u l=0.6u
+ ad=0p pd=0u as=0p ps=0u 
M60 a_41_540# a_15_420# a_41_420# vdd hpfet w=10.4u l=0.6u
+ ad=0p pd=0u as=0p ps=0u 
M61 a_41_420# a_15_420# a_41_540# vdd hpfet w=10.4u l=0.6u
+ ad=0p pd=0u as=0p ps=0u 
M62 a_41_540# a_15_420# a_41_420# vdd hpfet w=10.4u l=0.6u
+ ad=0p pd=0u as=0p ps=0u 
M63 a_41_420# a_15_420# a_41_540# vdd hpfet w=10.4u l=0.6u
+ ad=0p pd=0u as=0p ps=0u 
M64 vdd a_176_413# a_31_658# vdd hpfet w=10.4u l=0.6u
+ ad=0p pd=0u as=0p ps=0u 
M65 a_176_413# a_41_420# vdd vdd hpfet w=10.4u l=0.6u
+ ad=0p pd=0u as=0p ps=0u 
M66 vdd a_202_572# a_31_343# vdd hpfet w=10.4u l=0.6u
+ ad=0p pd=0u as=0p ps=0u 
M67 a_202_572# a_41_540# vdd vdd hpfet w=10.4u l=0.6u
+ ad=0p pd=0u as=0p ps=0u 
M68 a_329_420# a_326_417# vdd vdd hpfet w=10.4u l=0.6u
+ ad=0p pd=0u as=0p ps=0u 
M69 vdd a_326_417# a_329_420# vdd hpfet w=10.4u l=0.6u
+ ad=0p pd=0u as=0p ps=0u 
M70 a_329_420# a_326_417# vdd vdd hpfet w=10.4u l=0.6u
+ ad=0p pd=0u as=0p ps=0u 
M71 vdd a_326_417# a_329_420# vdd hpfet w=10.4u l=0.6u
+ ad=0p pd=0u as=0p ps=0u 
M72 a_329_420# a_326_417# vdd vdd hpfet w=10.4u l=0.6u
+ ad=0p pd=0u as=0p ps=0u 
M73 vdd a_326_417# a_329_420# vdd hpfet w=10.4u l=0.6u
+ ad=0p pd=0u as=0p ps=0u 
M74 DI a_329_420# vdd vdd hpfet w=10.4u l=0.6u
+ ad=0p pd=0u as=0p ps=0u 
M75 vdd a_329_420# DI vdd hpfet w=10.4u l=0.6u
+ ad=0p pd=0u as=0p ps=0u 
M76 DI a_329_420# vdd vdd hpfet w=10.4u l=0.6u
+ ad=0p pd=0u as=0p ps=0u 
M77 vdd a_329_420# DI vdd hpfet w=10.4u l=0.6u
+ ad=0p pd=0u as=0p ps=0u 
M78 DI a_329_420# vdd vdd hpfet w=10.4u l=0.6u
+ ad=0p pd=0u as=0p ps=0u 
M79 vdd a_329_420# DI vdd hpfet w=10.4u l=0.6u
+ ad=0p pd=0u as=0p ps=0u 
M80 gnd2 a_31_343# YPAD gnd2 hnfet w=35u l=0.6u
+ ad=0p pd=0u as=0p ps=0u 
M81 gnd2 a_31_343# YPAD gnd2 hnfet w=35u l=0.6u
+ ad=0p pd=0u as=0p ps=0u 
M82 YPAD gnd2 gnd2 gnd2 hnfet w=35u l=0.6u
+ ad=0p pd=0u as=0p ps=0u 
M83 YPAD gnd2 gnd2 gnd2 hnfet w=35u l=0.6u
+ ad=0p pd=0u as=0p ps=0u 
M84 gnd2 gnd2 YPAD gnd2 hnfet w=35u l=0.6u
+ ad=0p pd=0u as=0p ps=0u 
M85 gnd2 gnd2 YPAD gnd2 hnfet w=35u l=0.6u
+ ad=0p pd=0u as=0p ps=0u 
M86 YPAD gnd2 gnd2 gnd2 hnfet w=35u l=0.6u
+ ad=0p pd=0u as=0p ps=0u 
M87 gnd2 gnd2 YPAD gnd2 hnfet w=35u l=0.6u
+ ad=0p pd=0u as=0p ps=0u 
M88 YPAD gnd2 gnd2 gnd2 hnfet w=35u l=0.6u
+ ad=0p pd=0u as=0p ps=0u 
M89 gnd2 gnd2 YPAD gnd2 hnfet w=35u l=0.6u
+ ad=0p pd=0u as=0p ps=0u 
M90 YPAD gnd2 gnd2 gnd2 hnfet w=35u l=0.6u
+ ad=0p pd=0u as=0p ps=0u 
M91 YPAD gnd2 gnd2 gnd2 hnfet w=35u l=0.6u
+ ad=0p pd=0u as=0p ps=0u 
M92 gnd2 gnd2 YPAD gnd2 hnfet w=35u l=0.6u
+ ad=0p pd=0u as=0p ps=0u 
M93 gnd2 gnd2 YPAD gnd2 hnfet w=35u l=0.6u
+ ad=0p pd=0u as=0p ps=0u 
M94 YPAD gnd2 gnd2 gnd2 hnfet w=35u l=0.6u
+ ad=0p pd=0u as=0p ps=0u 
M95 YPAD gnd2 gnd2 gnd2 hnfet w=35u l=0.6u
+ ad=0p pd=0u as=0p ps=0u 
R0 YPAD a_326_417# 100
.ends PADINC

.subckt PADINOUT DI DO vdd2 gnd2 OEN vdd gnd YPAD
M0 vdd2 vdd2 YPAD vdd2 hpfet w=35u l=0.6u