*SPEF "IEEE 1481.1999"
*DESIGN "map9v3"
*DATE "11:15:07 Thursday June 25, 2020"
*VENDOR "unknown"
*PROGRAM "qrouter"
*VERSION "unknown"
*DESIGN_FLOW "qflow"
*DIVIDER /
*DELIMITER :
*BUS_DELIMITER <>
*T_UNIT 1 PS
*C_UNIT 1 FF
*R_UNIT 1 OHM
*L_UNIT 1 HENRY

*NAME_MAP
*1 _91_
*2 _115_
*3 _121_
*4 _183_
*5 _184_
*6 _193_
*7 _214_
*8 _195_
*9 _243_
*10 _129_
*11 _160_
*12 _174_
*13 _172_
*14 _162_
*15 _166_
*16 _164_
*17 _170_
*18 _168_
*19 state[0]
*20 _274_
*21 _179_
*22 _235_
*23 _226_
*24 _239_
*25 _115_
*26 _198_
*27 _206_
*28 _188_
*29 _202_
*30 _209_
*31 _222_
*32 _223_
*33 _103_
*34 _129_
*35 _134_
*36 _131_
*37 _130_
*38 _146_
*39 _152_
*40 _149_
*41 _143_
*42 _155_
*43 _154_
*44 _140_
*45 _137_
*46 _8__bF_buf2
*47 BUFX2_insert11
*48 _275_
*49 _291_
*50 _274_
*51 _280_
*52 _283_
*53 _284_
*54 _282_
*55 _8__bF_buf3
*56 BUFX2_insert10
*57 _279_
*58 _300_
*59 _302_
*60 _301_
*61 _292_
*62 _304_
*63 _297_
*64 _8__bF_buf4
*65 BUFX2_insert9
*66 _296_
*67 _293_
*68 _295_
*69 _305_
*70 _298_
*71 _303_
*72 _294_
*73 clock_bF_buf2
*74 CLKBUF1_insert2
*75 _293_
*76 _275_
*77 _281_
*78 _291_
*79 _292_
*80 _301_
*81 _300_
*82 clock_bF_buf3
*83 CLKBUF1_insert1
*84 _277_
*85 _306_
*86 _276_
*87 _288_
*88 _287_
*89 _286_
*90 _285_
*91 clock_bF_buf4
*92 CLKBUF1_insert0
*93 _290_
*94 _278_
*95 _289_
*96 _296_
*97 _295_
*98 _298_
*99 _299_
*100 state[3]
*101 _277_
*102 _120_
*103 _160_
*104 _158_
*105 _128_
*106 _241_
*107 _234_
*108 _204_
*109 _8__bF_buf0
*110 BUFX2_insert13
*111 _281_
*112 _286_
*113 _285_
*114 _288_
*115 _287_
*116 _276_
*117 _8__bF_buf1
*118 BUFX2_insert12
*119 _306_
*120 _290_
*121 _278_
*122 _299_
*123 _289_
*124 _277_
*125 clock_bF_buf0
*126 CLKBUF1_insert4
*127 _304_
*128 _303_
*129 _294_
*130 _305_
*131 _302_
*132 _297_
*133 clock_bF_buf1
*134 CLKBUF1_insert3
*135 _274_
*136 _280_
*137 _283_
*138 _279_
*139 _282_
*140 _284_
*141 _8_
*142 _247_
*143 BUFX2_insert9
*144 BUFX2_insert11
*145 BUFX2_insert10
*146 BUFX2_insert12
*147 BUFX2_insert13
*148 _102__bF_buf1
*149 BUFX2_insert7
*150 _162_
*151 _175_
*152 _174_
*153 _173_
*154 _172_
*155 _102__bF_buf2
*156 BUFX2_insert6
*157 _166_
*158 _167_
*159 _164_
*160 _165_
*161 _163_
*162 _102__bF_buf3
*163 BUFX2_insert5
*164 _129_
*165 _178_
*166 _181_
*167 _242_
*168 _182_
*169 clock
*170 CLKBUF1_insert4
*171 CLKBUF1_insert2
*172 CLKBUF1_insert3
*173 CLKBUF1_insert0
*174 CLKBUF1_insert1
*175 _111_[4]
*176 _285_
*177 _118_
*178 _220_
*179 _252_
*180 _210_
*181 _213_
*182 _102_
*183 _128_
*184 BUFX2_insert5
*185 BUFX2_insert7
*186 BUFX2_insert6
*187 BUFX2_insert8
*188 _102__bF_buf0
*189 BUFX2_insert8
*190 _168_
*191 _169_
*192 _170_
*193 _171_
*194 _111_[2]
*195 _283_
*196 _197_
*197 _203_
*198 _250_
*199 _116_
*200 _111_[0]
*201 _281_
*202 _181_
*203 _182_
*204 _117_
*205 _248_
*206 _111_[5]
*207 _286_
*208 _118_
*209 _220_
*210 _221_
*211 _253_
*212 _111_[6]
*213 _287_
*214 _254_
*215 _234_
*216 _118_
*217 _230_
*218 _111_[7]
*219 _288_
*220 _255_
*221 _240_
*222 _242_
*223 _120_
*224 _114_[0]
*225 _289_
*226 _160_
*227 _174_
*228 _266_
*229 _130_
*230 _114_[3]
*231 _292_
*232 _157_
*233 _139_
*234 _269_
*235 _166_
*236 _114_[4]
*237 _293_
*238 _168_
*239 _157_
*240 _142_
*241 _270_
*242 _114_[5]
*243 _294_
*244 _170_
*245 _145_
*246 _271_
*247 _156_
*248 _39_
*249 _186_
*250 _217_
*251 _208_
*252 _201_
*253 _187_
*254 _40_
*255 _187_
*256 _188_
*257 _199_
*258 _195_
*259 _196_
*260 N[3]
*261 _195_
*262 _196_
*263 _199_
*264 _200_
*265 _55_
*266 _204_
*267 _211_
*268 _213_
*269 _220_
*270 _205_
*271 N[5]
*272 _207_
*273 _218_
*274 _209_
*275 _216_
*276 _66_
*277 _217_
*278 _219_
*279 _226_
*280 _237_
*281 _225_
*282 _111_[3]
*283 _284_
*284 _251_
*285 _203_
*286 _116_
*287 _92_
*288 _116_
*289 _119_
*290 _229_
*291 _204_
*292 _111_[1]
*293 _282_
*294 _249_
*295 _189_
*296 _117_
*297 _93_
*298 _117_
*299 _229_
*300 _204_
*301 _119_
*302 state[2]
*303 _276_
*304 _177_
*305 _129_
*306 _278_
*307 _114_[1]
*308 _290_
*309 _267_
*310 _133_
*311 _162_
*312 _114_[2]
*313 _291_
*314 _136_
*315 _268_
*316 _164_
*317 _114_[6]
*318 _295_
*319 _172_
*320 _272_
*321 _148_
*322 _114_[7]
*323 _296_
*324 _156_
*325 _273_
*326 _151_
*327 N[1]
*328 _180_
*329 _185_
*330 _186_
*331 _36_
*332 _182_
*333 _190_
*334 _183_
*335 _192_
*336 _43_
*337 _190_
*338 _191_
*339 _203_
*340 _197_
*341 _51_
*342 _200_
*343 _201_
*344 _208_
*345 _217_
*346 _52_
*347 _201_
*348 _209_
*349 _218_
*350 _202_
*351 _60_
*352 _210_
*353 _212_
*354 _233_
*355 _231_
*356 _70_
*357 _221_
*358 _222_
*359 _233_
*360 _231_
*361 N[7]
*362 _237_
*363 _224_
*364 _226_
*365 _95_
*366 _119_
*367 _242_
*368 _120_
*369 state[1]
*370 _275_
*371 _245_
*372 _122_
*373 state[4]
*374 _278_
*375 _178_
*376 _123_
*377 startbuf[0]
*378 _279_
*379 _280_
*380 _124_
*381 _100_
*382 _125_
*383 _126_
*384 _245_
*385 _113_[1]
*386 _298_
*387 _258_
*388 _127_
*389 _113_[2]
*390 _299_
*391 _259_
*392 _132_
*393 _106_
*394 _133_
*395 _134_
*396 _175_
*397 _113_[3]
*398 _300_
*399 _135_
*400 _260_
*401 _108_
*402 _136_
*403 _137_
*404 _163_
*405 _113_[4]
*406 _301_
*407 _261_
*408 _138_
*409 _110_
*410 _139_
*411 _165_
*412 _140_
*413 _113_[5]
*414 _302_
*415 _141_
*416 _262_
*417 _10_
*418 _142_
*419 _143_
*420 _167_
*421 _113_[6]
*422 _303_
*423 _263_
*424 _144_
*425 _12_
*426 _145_
*427 _169_
*428 _146_
*429 _113_[7]
*430 _304_
*431 _264_
*432 _147_
*433 _14_
*434 _148_
*435 _149_
*436 _171_
*437 _113_[8]
*438 _305_
*439 _265_
*440 _150_
*441 _16_
*442 _151_
*443 _173_
*444 _152_
*445 _113_[0]
*446 _297_
*447 _257_
*448 _153_
*449 _19_
*450 _156_
*451 _159_
*452 _158_
*453 _20_
*454 _157_
*455 _159_
*456 _158_
*457 _112_
*458 _306_
*459 _256_
*460 _176_
*461 N[2]
*462 _185_
*463 _186_
*464 _42_
*465 _189_
*466 _192_
*467 _190_
*468 N[4]
*469 _199_
*470 _200_
*471 _61_
*472 _211_
*473 _233_
*474 _212_
*475 _63_
*476 _213_
*477 _214_
*478 _222_
*479 N[6]
*480 _216_
*481 _218_
*482 _72_
*483 _224_
*484 _238_
*485 _228_
*486 _73_
*487 _225_
*488 _238_
*489 _228_
*490 _80_
*491 _232_
*492 _241_
*493 _234_
*494 N[8]
*495 _236_
*496 _238_
*497 _88_
*498 _241_
*499 _243_
*500 _246_
*501 _94_
*502 _118_
*503 _119_
*504 _96_
*505 _120_
*506 _121_
*507 _7_
*508 _121_
*509 _277_
*510 _97_
*511 _122_
*512 _126_
*513 _98_
*514 _123_
*515 _126_
*516 _99_
*517 _124_
*518 _125_
*519 startbuf[1]
*520 _280_
*521 _125_
*522 _6_
*523 _126_
*524 _275_
*525 _101_
*526 _127_
*527 _131_
*528 _104_
*529 _130_
*530 _131_
*531 _2_[1]
*532 _131_
*533 _298_
*534 _105_
*535 _132_
*536 _134_
*537 _2_[2]
*538 _134_
*539 _299_
*540 _107_
*541 _135_
*542 _137_
*543 _2_[3]
*544 _137_
*545 _300_
*546 _109_
*547 _138_
*548 _140_
*549 _2_[4]
*550 _140_
*551 _301_
*552 _9_
*553 _141_
*554 _143_
*555 _2_[5]
*556 _143_
*557 _302_
*558 _11_
*559 _144_
*560 _146_
*561 _2_[6]
*562 _146_
*563 _303_
*564 _13_
*565 _147_
*566 _149_
*567 _2_[7]
*568 _149_
*569 _304_
*570 _15_
*571 _150_
*572 _152_
*573 _2_[8]
*574 _152_
*575 _305_
*576 _17_
*577 _153_
*578 _155_
*579 N[0]
*580 _154_
*581 _18_
*582 _154_
*583 _155_
*584 _2_[0]
*585 _155_
*586 _297_
*587 _21_
*588 _158_
*589 _159_
*590 _22_
*591 _159_
*592 _161_
*593 _23_
*594 _160_
*595 _161_
*596 _3_[0]
*597 _161_
*598 _289_
*599 _24_
*600 _162_
*601 _163_
*602 _3_[2]
*603 _163_
*604 _291_
*605 _25_
*606 _164_
*607 _165_
*608 _3_[3]
*609 _165_
*610 _292_
*611 _26_
*612 _166_
*613 _167_
*614 _3_[4]
*615 _167_
*616 _293_
*617 _27_
*618 _168_
*619 _169_
*620 _3_[5]
*621 _169_
*622 _294_
*623 _28_
*624 _170_
*625 _171_
*626 _3_[6]
*627 _171_
*628 _295_
*629 _29_
*630 _172_
*631 _173_
*632 _3_[7]
*633 _173_
*634 _296_
*635 _30_
*636 _174_
*637 _175_
*638 _3_[1]
*639 _175_
*640 _290_
*641 _31_
*642 _176_
*643 _179_
*644 _32_
*645 _177_
*646 _178_
*647 _33_
*648 _178_
*649 _179_
*650 _1_
*651 _179_
*652 _306_
*653 _34_
*654 _180_
*655 _184_
*656 _35_
*657 _181_
*658 _183_
*659 _37_
*660 _183_
*661 _184_
*662 _0_[0]
*663 _184_
*664 _281_
*665 _38_
*666 _185_
*667 _188_
*668 _41_
*669 _188_
*670 _194_
*671 _44_
*672 _191_
*673 _193_
*674 _45_
*675 _192_
*676 _193_
*677 _46_
*678 _193_
*679 _194_
*680 _0_[1]
*681 _194_
*682 _282_
*683 _47_
*684 _195_
*685 _196_
*686 _48_
*687 _196_
*688 _198_
*689 _49_
*690 _197_
*691 _198_
*692 _0_[2]
*693 _198_
*694 _283_
*695 _50_
*696 _199_
*697 _202_
*698 _53_
*699 _202_
*700 _206_
*701 _54_
*702 _203_
*703 _205_
*704 _56_
*705 _205_
*706 _206_
*707 _0_[3]
*708 _206_
*709 _284_
*710 _57_
*711 _207_
*712 _208_
*713 _58_
*714 _208_
*715 _215_
*716 _59_
*717 _209_
*718 _215_
*719 _62_
*720 _212_
*721 _214_
*722 _64_
*723 _214_
*724 _215_
*725 _0_[4]
*726 _215_
*727 _285_
*728 _65_
*729 _216_
*730 _217_
*731 _67_
*732 _218_
*733 _219_
*734 _68_
*735 _219_
*736 _223_
*737 _69_
*738 _220_
*739 _223_
*740 _71_
*741 _222_
*742 _223_
*743 _0_[5]
*744 _223_
*745 _286_
*746 _74_
*747 _226_
*748 _227_
*749 _75_
*750 _227_
*751 _228_
*752 _76_
*753 _228_
*754 _235_
*755 _77_
*756 _229_
*757 _232_
*758 _78_
*759 _230_
*760 _231_
*761 _79_
*762 _231_
*763 _232_
*764 _81_
*765 _233_
*766 _234_
*767 _82_
*768 _234_
*769 _235_
*770 _0_[6]
*771 _235_
*772 _287_
*773 _83_
*774 _236_
*775 _237_
*776 _84_
*777 _237_
*778 _239_
*779 _85_
*780 _238_
*781 _239_
*782 _86_
*783 _239_
*784 _244_
*785 _87_
*786 _240_
*787 _241_
*788 _89_
*789 _242_
*790 _243_
*791 _90_
*792 _243_
*793 _244_
*794 _0_[7]
*795 _244_
*796 _288_
*797 _4_
*798 _245_
*799 _274_
*800 _5_
*801 _246_
*802 _276_
*803 reset
*804 _247_
*805 counter[0]
*806 _248_
*807 counter[1]
*808 _249_
*809 counter[2]
*810 _250_
*811 counter[3]
*812 _251_
*813 counter[4]
*814 _252_
*815 counter[5]
*816 _253_
*817 counter[6]
*818 _254_
*819 counter[7]
*820 _255_
*821 done
*822 _256_
*823 dp[0]
*824 _257_
*825 dp[1]
*826 _258_
*827 dp[2]
*828 _259_
*829 dp[3]
*830 _260_
*831 dp[4]
*832 _261_
*833 dp[5]
*834 _262_
*835 dp[6]
*836 _263_
*837 dp[7]
*838 _264_
*839 dp[8]
*840 _265_
*841 sr[0]
*842 _266_
*843 sr[1]
*844 _267_
*845 sr[2]
*846 _268_
*847 sr[3]
*848 _269_
*849 sr[4]
*850 _270_
*851 sr[5]
*852 _271_
*853 sr[6]
*854 _272_
*855 sr[7]
*856 _273_
*857 start
*858 _279_

*PORTS
*169 I
*260 I
*271 I
*327 I
*361 I
*461 I
*468 I
*479 I
*494 I
*579 I
*803 I
*805 O
*807 O
*809 O
*811 O
*813 O
*815 O
*817 O
*819 O
*821 O
*823 O
*825 O
*827 O
*829 O
*831 O
*833 O
*835 O
*837 O
*839 O
*841 O
*843 O
*845 O
*847 O
*849 O
*851 O
*853 O
*855 O
*857 I

*D_NET *1 0.00464832
*CONN
*I *2:Y O *D _115
*I *3:A I *L 0
*I *4:C I *L 0
*I *5:A I *L 0
*I *6:C I *L 0
*I *7:C I *L 0
*I *8:C I *L 0
*I *9:A I *L 0
*I *10:B I *L 0
*I *11:C I *L 0
*I *12:C I *L 0
*I *13:C I *L 0
*I *14:C I *L 0
*I *15:C I *L 0
*I *16:C I *L 0
*I *17:C I *L 0
*I *18:C I *L 0
*CAP
1 1_1 8.64e-05
2 1_2 2.04e-05
3 1_3 0.00044064
4 1_4 2.04e-05
5 1_5 9.48e-05
6 1_6 0.00012096
7 1_7 2.016e-05
8 1_8 0
9 1_9 0.0002532
10 1_10 8.736e-05
11 1_11 0.00038736
12 1_12 0.0004284
13 1_13 0.00023592
14 1_14 4.08e-05
15 1_15 7.392e-05
16 1_16 0.00021744
17 1_17 2.04e-05
18 1_18 0.00032544
19 1_19 0
20 1_20 0.0003792
21 1_21 0.0002448
22 1_22 2.04e-05
23 1_23 0.00027768
24 1_24 4.08e-05
25 1_25 6.048e-05
26 1_26 0.00029784
27 1_27 0.0003312
28 1_28 4.08e-05
29 1_29 8.112e-05
*RES
1 *2:Y 1_1 0.56
2 1_1 *3:A 0
3 1_1 1_2 0.233333
4 1_2 1_3 5.04
5 1_3 1_4 0.233333
6 1_4 *4:C 0
7 1_4 1_5 1.63333
8 1_5 *5:A 0
9 1_4 1_6 3.36
10 1_6 1_7 0.56
11 1_7 1_8 0
12 1_8 *6:C 0
13 1_8 1_9 3.03333
14 1_9 1_10 2.42667
15 1_10 *7:C 0
16 1_9 1_11 4.76
17 1_11 *8:C 0
18 1_6 1_12 4.9
19 1_12 *9:A 0
20 1_2 1_13 5.55333
21 1_13 1_14 0.466667
22 1_14 *10:B 0
23 1_13 1_15 2.05333
24 1_15 1_16 2.70667
25 1_16 1_17 0.233333
26 1_17 *11:C 0
27 1_17 1_18 5.04
28 1_18 1_19 0
29 1_19 *12:C 0
30 1_18 1_20 6.53333
31 1_20 *13:C 0
32 1_15 1_21 2.8
33 1_21 1_22 0.233333
34 1_22 *14:C 0
35 1_22 1_23 4.71333
36 1_23 1_24 0.466667
37 1_24 *15:C 0
38 1_23 1_25 1.68
39 1_25 1_26 3.40667
40 1_26 *16:C 0
41 1_25 1_27 6.53333
42 1_27 1_28 0.466667
43 1_28 *17:C 0
44 1_27 1_29 1.58667
45 1_29 *18:C 0
*END
*D_NET *19 0.00351744
*CONN
*I *20:Q O *D _274
*I *21:C I *L 0
*I *22:A I *L 0
*I *23:C I *L 0
*I *24:A I *L 0
*I *25:A I *L 0
*I *26:A I *L 0
*I *27:A I *L 0
*I *28:C I *L 0
*I *29:A I *L 0
*I *30:C I *L 0
*I *31:C I *L 0
*I *32:A I *L 0
*CAP
1 19_1 0.00045432
2 19_2 0.00062376
3 19_3 0.0003264
4 19_4 3.264e-05
5 19_5 0.00030288
6 19_6 0.0001224
7 19_7 0.00012888
8 19_8 2.04e-05
9 19_9 3.36e-05
10 19_10 2.04e-05
11 19_11 2.04e-05
12 19_12 0.0001344
13 19_13 0
14 19_14 0.0003876
15 19_15 8.736e-05
16 19_16 8.136e-05
17 19_17 0.000204
18 19_18 2.04e-05
19 19_19 0.00027168
20 19_20 6.096e-05
21 19_21 0.0001836
*RES
1 *20:Q 19_1 6.95333
2 19_1 19_2 7.79333
3 19_2 19_3 3.73333
4 19_3 19_4 0.373333
5 19_4 *21:C 0
6 19_3 19_5 7.74667
7 19_5 19_6 1.4
8 19_6 *22:A 0
9 19_5 19_7 1.91333
10 19_7 19_8 0.233333
11 19_8 *23:C 0
12 19_8 19_9 0.933333
13 19_9 *24:A 0
14 19_2 19_10 0.233333
15 19_10 *25:A 0
16 19_1 19_11 0.233333
17 19_11 *26:A 0
18 19_11 19_12 3.73333
19 19_12 19_13 0
20 19_13 *27:A 0
21 19_13 19_14 4.43333
22 19_14 *28:C 0
23 19_12 19_15 2.42667
24 19_15 19_16 1.26
25 19_16 *29:A 0
26 19_15 19_17 2.33333
27 19_17 19_18 0.233333
28 19_18 *30:C 0
29 19_18 19_19 3.54667
30 19_19 19_20 1.02667
31 19_20 *31:C 0
32 19_19 19_21 2.1
33 19_21 *32:A 0
*END
*D_NET *33 0.00337176
*CONN
*I *34:Y O *D _129
*I *35:S I *L 0
*I *36:B I *L 0
*I *37:B I *L 0
*I *38:S I *L 0
*I *39:S I *L 0
*I *40:S I *L 0
*I *41:S I *L 0
*I *42:B I *L 0
*I *43:B I *L 0
*I *44:S I *L 0
*I *45:S I *L 0
*CAP
1 33_1 0.0004332
2 33_2 0.000102
3 33_3 0.000168
4 33_4 8.16e-05
5 33_5 4.032e-05
6 33_6 0.000102
7 33_7 8.736e-05
8 33_8 0.0001224
9 33_9 2.304e-05
10 33_10 0.00021576
11 33_11 0.00025344
12 33_12 4.08e-05
13 33_13 0.00050256
14 33_14 5.76e-05
15 33_15 9e-05
16 33_16 0.00028464
17 33_17 0.0001584
18 33_18 0.0003312
19 33_19 0.000156
20 33_20 0.00012144
*RES
1 *34:Y 33_1 7.7
2 33_1 33_2 1.16667
3 33_2 *35:S 0
4 33_1 33_3 4.66667
5 33_3 33_4 0.933333
6 33_4 *36:B 0
7 33_3 33_5 1.12
8 33_5 33_6 1.16667
9 33_6 *37:B 0
10 33_5 33_7 2.42667
11 33_7 33_8 1.4
12 33_8 *38:S 0
13 33_7 33_9 0.44
14 33_9 33_10 2.19333
15 33_10 *39:S 0
16 33_9 33_11 2.04
17 33_11 33_12 0.466667
18 33_12 *40:S 0
19 33_11 33_13 6.62667
20 33_13 33_14 0.373333
21 33_14 *41:S 0
22 33_13 33_15 1.16667
23 33_15 33_16 4.57333
24 33_16 *42:B 0
25 33_16 33_17 1.02667
26 33_17 *43:B 0
27 33_15 33_18 6.53333
28 33_18 33_19 1.21333
29 33_19 *44:S 0
30 33_18 33_20 2.70667
31 33_20 *45:S 0
*END
*D_NET *46 0.0013308
*CONN
*I *47:Y O *D BUFX2
*I *48:R I *L 0
*I *49:R I *L 0
*I *50:S I *L 0
*I *51:R I *L 0
*I *52:R I *L 0
*I *53:R I *L 0
*I *54:R I *L 0
*CAP
1 46_1 6.768e-05
2 46_2 0.0004284
3 46_3 2.04e-05
4 46_4 0.0002244
5 46_5 3.36e-05
6 46_6 0
7 46_7 0.00022416
8 46_8 4.704e-05
9 46_9 4.032e-05
10 46_10 0.0002448
*RES
1 *47:Y 46_1 1.21333
2 46_1 *48:R 0
3 46_1 46_2 4.9
4 46_2 *49:R 0
5 46_2 46_3 0.233333
6 46_3 46_4 2.56667
7 46_4 *50:S 0
8 46_3 46_5 0.933333
9 46_5 46_6 0
10 46_6 *51:R 0
11 46_6 46_7 2.89333
12 46_7 *52:R 0
13 46_6 46_8 1.30667
14 46_8 46_9 1.12
15 46_9 *53:R 0
16 46_8 46_10 2.8
17 46_10 *54:R 0
*END
*D_NET *55 0.00183192
*CONN
*I *56:Y O *D BUFX2
*I *57:R I *L 0
*I *58:R I *L 0
*I *59:R I *L 0
*I *60:R I *L 0
*I *61:R I *L 0
*I *62:R I *L 0
*I *63:R I *L 0
*CAP
1 55_1 0.00051
2 55_2 9.384e-05
3 55_3 0.00020904
4 55_4 0.000204
5 55_5 2.04e-05
6 55_6 0.00029208
7 55_7 2.04e-05
8 55_8 0.000204
9 55_9 2.04e-05
10 55_10 5.376e-05
11 55_11 0.000204
*RES
1 *56:Y 55_1 5.83333
2 55_1 55_2 1.07333
3 55_2 *57:R 0
4 55_1 55_3 4.80667
5 55_3 *58:R 0
6 55_3 55_4 2.33333
7 55_4 55_5 0.233333
8 55_5 *59:R 0
9 55_5 55_6 3.78
10 55_6 55_7 0.233333
11 55_7 *60:R 0
12 55_7 55_8 2.33333
13 55_8 55_9 0.233333
14 55_9 *61:R 0
15 55_9 55_10 1.49333
16 55_10 *62:R 0
17 55_5 55_11 2.33333
18 55_11 *63:R 0
*END
*D_NET *64 0.00148032
*CONN
*I *65:Y O *D BUFX2
*I *66:R I *L 0
*I *67:R I *L 0
*I *68:R I *L 0
*I *69:R I *L 0
*I *70:R I *L 0
*I *71:R I *L 0
*I *72:R I *L 0
*CAP
1 64_1 0.0001632
2 64_2 0.0001428
3 64_3 0.00014112
4 64_4 1.344e-05
5 64_5 2.04e-05
6 64_6 0.000204
7 64_7 2.04e-05
8 64_8 0.00028536
9 64_9 0.0002448
10 64_10 0.0002448
*RES
1 *65:Y 64_1 1.86667
2 64_1 *66:R 0
3 64_1 64_2 1.63333
4 64_2 *67:R 0
5 64_1 64_3 3.92
6 64_3 64_4 0.373333
7 64_4 *68:R 0
8 64_4 64_5 0.233333
9 64_5 64_6 2.33333
10 64_6 64_7 0.233333
11 64_7 *69:R 0
12 64_7 64_8 3.59333
13 64_8 *70:R 0
14 64_5 64_9 2.8
15 64_9 *71:R 0
16 64_3 64_10 2.8
17 64_10 *72:R 0
*END
*D_NET *73 0.00238656
*CONN
*I *74:Y O *D CLKBUF1
*I *75:CLK I *L 0
*I *76:CLK I *L 0
*I *77:CLK I *L 0
*I *78:CLK I *L 0
*I *79:CLK I *L 0
*I *80:CLK I *L 0
*I *81:CLK I *L 0
*CAP
1 73_1 6.12e-05
2 73_2 4.08e-05
3 73_3 0.00039984
4 73_4 0.0001008
5 73_5 6.048e-05
6 73_6 4.08e-05
7 73_7 0.00045432
8 73_8 0.000408
9 73_9 0.00014784
10 73_10 6.12e-05
11 73_11 0.00010848
12 73_12 2.04e-05
13 73_13 0.0004824
*RES
1 *74:Y 73_1 0.7
2 73_1 73_2 0.466667
3 73_2 73_3 4.57333
4 73_3 *75:CLK 0
5 73_2 73_4 2.8
6 73_4 73_5 1.68
7 73_5 73_6 0.466667
8 73_6 *76:CLK 0
9 73_5 73_7 6.95333
10 73_7 *77:CLK 0
11 73_4 73_8 4.66667
12 73_8 *78:CLK 0
13 73_1 73_9 4.10667
14 73_9 73_10 0.7
15 73_10 *79:CLK 0
16 73_9 73_11 1.68
17 73_11 73_12 0.233333
18 73_12 *80:CLK 0
19 73_12 73_13 6.06667
20 73_13 *81:CLK 0
*END
*D_NET *82 0.00220272
*CONN
*I *83:Y O *D CLKBUF1
*I *84:CLK I *L 0
*I *85:CLK I *L 0
*I *86:CLK I *L 0
*I *87:CLK I *L 0
*I *88:CLK I *L 0
*I *89:CLK I *L 0
*I *90:CLK I *L 0
*CAP
1 82_1 0.00038568
2 82_2 2.04e-05
3 82_3 0.000102
4 82_4 5.424e-05
5 82_5 7.392e-05
6 82_6 0.0003264
7 82_7 0.00012096
8 82_8 4.08e-05
9 82_9 5.376e-05
10 82_10 0.00037368
11 82_11 0.00046104
12 82_12 2.04e-05
13 82_13 0.00016944
*RES
1 *83:Y 82_1 7.04667
2 82_1 82_2 0.233333
3 82_2 *84:CLK 0
4 82_2 82_3 1.16667
5 82_3 82_4 0.84
6 82_4 82_5 2.05333
7 82_5 *85:CLK 0
8 82_4 82_6 3.73333
9 82_6 *86:CLK 0
10 82_3 82_7 3.36
11 82_7 82_8 0.466667
12 82_8 *87:CLK 0
13 82_7 82_9 1.49333
14 82_9 82_10 4.71333
15 82_10 *88:CLK 0
16 82_9 82_11 5.27333
17 82_11 82_12 0.233333
18 82_12 *89:CLK 0
19 82_12 82_13 2.70667
20 82_13 *90:CLK 0
*END
*D_NET *91 0.00211704
*CONN
*I *92:Y O *D CLKBUF1
*I *93:CLK I *L 0
*I *94:CLK I *L 0
*I *95:CLK I *L 0
*I *96:CLK I *L 0
*I *97:CLK I *L 0
*I *98:CLK I *L 0
*I *99:CLK I *L 0
*CAP
1 91_1 0.00025128
2 91_2 0.0001224
3 91_3 2.04e-05
4 91_4 0.0003804
5 91_5 8.4e-06
6 91_6 4.032e-05
7 91_7 0.00015456
8 91_8 2.016e-05
9 91_9 0
10 91_10 0.00021504
11 91_11 0
12 91_12 0.00047568
13 91_13 0.0004284
*RES
1 *92:Y 91_1 3.31333
2 91_1 91_2 1.4
3 91_2 91_3 0.233333
4 91_3 *93:CLK 0
5 91_3 91_4 4.9
6 91_4 *94:CLK 0
7 91_1 91_5 0.233333
8 91_5 91_6 1.12
9 91_6 *95:CLK 0
10 91_5 91_7 4.29333
11 91_7 91_8 0.56
12 91_8 91_9 0
13 91_9 *96:CLK 0
14 91_8 91_10 5.97333
15 91_10 91_11 0
16 91_11 *97:CLK 0
17 91_11 91_12 5.88
18 91_12 *98:CLK 0
19 91_7 91_13 4.9
20 91_13 *99:CLK 0
*END
*D_NET *100 0.00182088
*CONN
*I *101:Q O *D _277
*I *102:C I *L 0
*I *103:A I *L 0
*I *104:C I *L 0
*I *105:A I *L 0
*I *106:A I *L 0
*I *107:A I *L 0
*I *108:A I *L 0
*CAP
1 100_1 0.00018
2 100_2 0.00010752
3 100_3 6.96e-05
4 100_4 0.0002352
5 100_5 2.016e-05
6 100_6 0.0001836
7 100_7 0.00015552
8 100_8 0.0002652
9 100_9 4.032e-05
10 100_10 0.00016296
11 100_11 2.04e-05
12 100_12 7.44e-05
13 100_13 0.000306
*RES
1 *101:Q 100_1 1.77333
2 100_1 100_2 2.98667
3 100_2 100_3 0.933333
4 100_3 *102:C 0
5 100_2 100_4 6.53333
6 100_4 100_5 0.56
7 100_5 100_6 2.1
8 100_6 *103:A 0
9 100_5 100_7 2.98667
10 100_7 *104:C 0
11 100_4 100_8 3.03333
12 100_8 *105:A 0
13 100_1 100_9 1.12
14 100_9 100_10 2.19333
15 100_10 100_11 0.233333
16 100_11 *106:A 0
17 100_11 100_12 1.4
18 100_12 *107:A 0
19 100_9 100_13 3.5
20 100_13 *108:A 0
*END
*D_NET *109 0.00172584
*CONN
*I *110:Y O *D BUFX2
*I *111:R I *L 0
*I *112:R I *L 0
*I *113:R I *L 0
*I *114:R I *L 0
*I *115:R I *L 0
*I *116:R I *L 0
*CAP
1 109_1 2.04e-05
2 109_2 0.00021024
3 109_3 0.0002352
4 109_4 3.36e-05
5 109_5 8.16e-05
6 109_6 0.00018984
7 109_7 0.00054264
8 109_8 0.00029784
9 109_9 2.04e-05
10 109_10 9.408e-05
*RES
1 *110:Y 109_1 0.233333
2 109_1 109_2 3.17333
3 109_2 *111:R 0
4 109_1 109_3 6.53333
5 109_3 109_4 0.933333
6 109_4 109_5 0.933333
7 109_5 *112:R 0
8 109_4 109_6 2.94
9 109_6 *113:R 0
10 109_3 109_7 6.20667
11 109_7 *114:R 0
12 109_7 109_8 3.40667
13 109_8 109_9 0.233333
14 109_9 *115:R 0
15 109_9 109_10 2.61333
16 109_10 *116:R 0
*END
*D_NET *117 0.00090024
*CONN
*I *118:Y O *D BUFX2
*I *119:R I *L 0
*I *120:R I *L 0
*I *121:R I *L 0
*I *122:R I *L 0
*I *123:R I *L 0
*I *124:R I *L 0
*CAP
1 117_1 2.04e-05
2 117_2 0.00019584
3 117_3 2.04e-05
4 117_4 6.048e-05
5 117_5 1.344e-05
6 117_6 0.0002448
7 117_7 6.72e-05
8 117_8 4.08e-05
9 117_9 0.00012192
10 117_10 0.00011496
*RES
1 *118:Y 117_1 0.233333
2 117_1 117_2 2.24
3 117_2 117_3 0.233333
4 117_3 *119:R 0
5 117_3 117_4 1.68
6 117_4 117_5 0.373333
7 117_5 *120:R 0
8 117_4 117_6 2.8
9 117_6 *121:R 0
10 117_6 117_7 1.86667
11 117_7 *122:R 0
12 117_1 117_8 0.466667
13 117_8 117_9 2.05333
14 117_9 *123:R 0
15 117_8 117_10 2.19333
16 117_10 *124:R 0
*END
*D_NET *125 0.00166848
*CONN
*I *126:Y O *D CLKBUF1
*I *127:CLK I *L 0
*I *128:CLK I *L 0
*I *129:CLK I *L 0
*I *130:CLK I *L 0
*I *131:CLK I *L 0
*I *132:CLK I *L 0
*CAP
1 125_1 2.04e-05
2 125_2 0.0001428
3 125_3 2.04e-05
4 125_4 0.00017664
5 125_5 1.344e-05
6 125_6 0.000102
7 125_7 0.00024984
8 125_8 0.00030624
9 125_9 0.00027864
10 125_10 0.00014184
11 125_11 0.00021624
*RES
1 *126:Y 125_1 0.233333
2 125_1 125_2 1.63333
3 125_2 125_3 0.233333
4 125_3 *127:CLK 0
5 125_3 125_4 1.50667
6 125_4 125_5 0.373333
7 125_5 125_6 1.16667
8 125_6 *128:CLK 0
9 125_5 125_7 5.27333
10 125_7 *129:CLK 0
11 125_4 125_8 2.77333
12 125_8 *130:CLK 0
13 125_1 125_9 3.40667
14 125_9 125_10 2.94
15 125_10 *131:CLK 0
16 125_9 125_11 2.47333
17 125_11 *132:CLK 0
*END
*D_NET *133 0.00135072
*CONN
*I *134:Y O *D CLKBUF1
*I *135:CLK I *L 0
*I *136:CLK I *L 0
*I *137:CLK I *L 0
*I *138:CLK I *L 0
*I *139:CLK I *L 0
*I *140:CLK I *L 0
*CAP
1 133_1 0.00012144
2 133_2 8.4e-06
3 133_3 0
4 133_4 0.0003804
5 133_5 2.04e-05
6 133_6 0.0001308
7 133_7 2.016e-05
8 133_8 0.00014112
9 133_9 0.00015456
10 133_10 0
11 133_11 0.00037344
*RES
1 *134:Y 133_1 2.70667
2 133_1 133_2 0.233333
3 133_2 133_3 0
4 133_3 *135:CLK 0
5 133_3 133_4 4.9
6 133_4 133_5 0.233333
7 133_5 *136:CLK 0
8 133_5 133_6 1.63333
9 133_6 133_7 0.56
10 133_7 *137:CLK 0
11 133_6 133_8 3.92
12 133_8 *138:CLK 0
13 133_2 133_9 4.29333
14 133_9 133_10 0
15 133_10 *139:CLK 0
16 133_9 133_11 5.04
17 133_11 *140:CLK 0
*END
*D_NET *141 0.0016536
*CONN
*I *142:Y O *D _247
*I *143:A I *L 0
*I *144:A I *L 0
*I *145:A I *L 0
*I *146:A I *L 0
*I *147:A I *L 0
*CAP
1 141_1 0.0005712
2 141_2 4.704e-05
3 141_3 0
4 141_4 0.00046104
5 141_5 5.76e-05
6 141_6 0.00016128
7 141_7 0.00027744
8 141_8 7.8e-05
*RES
1 *142:Y 141_1 6.53333
2 141_1 141_2 1.30667
3 141_2 141_3 0
4 141_3 *143:A 0
5 141_3 141_4 5.27333
6 141_4 *144:A 0
7 141_4 141_5 0.373333
8 141_5 *145:A 0
9 141_1 141_6 4.48
10 141_6 141_7 3.17333
11 141_7 *146:A 0
12 141_6 141_8 0.606667
13 141_8 *147:A 0
*END
*D_NET *148 0.0010464
*CONN
*I *149:Y O *D BUFX2
*I *150:B I *L 0
*I *151:A I *L 0
*I *152:B I *L 0
*I *153:A I *L 0
*I *154:B I *L 0
*CAP
1 148_1 0.0004008
2 148_2 0.00023304
3 148_3 2.04e-05
4 148_4 4.704e-05
5 148_5 0
6 148_6 7.392e-05
7 148_7 0
8 148_8 0.0002712
*RES
1 *149:Y 148_1 5.13333
2 148_1 148_2 2.38
3 148_2 *150:B 0
4 148_1 148_3 0.233333
5 148_3 *151:A 0
6 148_3 148_4 1.30667
7 148_4 148_5 0
8 148_5 *152:B 0
9 148_4 148_6 2.05333
10 148_6 148_7 0
11 148_7 *153:A 0
12 148_6 148_8 4.2
13 148_8 *154:B 0
*END
*D_NET *155 0.0004752
*CONN
*I *156:Y O *D BUFX2
*I *157:B I *L 0
*I *158:A I *L 0
*I *159:B I *L 0
*I *160:A I *L 0
*I *161:A I *L 0
*CAP
1 155_1 6.768e-05
2 155_2 0
3 155_3 2.688e-05
4 155_4 2.016e-05
5 155_5 0.000204
6 155_6 2.04e-05
7 155_7 8.4e-06
8 155_8 4.704e-05
9 155_9 8.064e-05
*RES
1 *156:Y 155_1 1.21333
2 155_1 155_2 0
3 155_2 *157:B 0
4 155_1 155_3 0.746667
5 155_3 155_4 0.56
6 155_4 *158:A 0
7 155_3 155_5 2.33333
8 155_5 155_6 0.233333
9 155_6 *159:B 0
10 155_6 155_7 0.233333
11 155_7 155_8 1.30667
12 155_8 *160:A 0
13 155_7 155_9 2.24
14 155_9 *161:A 0
*END
*D_NET *162 0.00088776
*CONN
*I *163:Y O *D BUFX2
*I *164:C I *L 0
*I *165:B I *L 0
*I *166:A I *L 0
*I *167:A I *L 0
*I *168:B I *L 0
*CAP
1 162_1 0.000102
2 162_2 0.00014256
3 162_3 0.00011424
4 162_4 6.12e-05
5 162_5 5.376e-05
6 162_6 0.0001428
7 162_7 4.704e-05
8 162_8 6.096e-05
9 162_9 0.0001632
*RES
1 *163:Y 162_1 1.16667
2 162_1 162_2 1.96
3 162_2 *164:C 0
4 162_1 162_3 3.17333
5 162_3 162_4 0.7
6 162_4 *165:B 0
7 162_3 162_5 1.49333
8 162_5 162_6 1.63333
9 162_6 *166:A 0
10 162_5 162_7 1.30667
11 162_7 162_8 1.02667
12 162_8 *167:A 0
13 162_7 162_9 1.86667
14 162_9 *168:B 0
*END
*D_NET *169 0.0013884
*CONN
*P *169 O
*I *170:A I *L 0
*I *171:A I *L 0
*I *172:A I *L 0
*I *173:A I *L 0
*I *174:A I *L 0
*CAP
1 169_1 4.704e-05
2 169_2 4.92e-05
3 169_3 0.000444
4 169_4 2.04e-05
5 169_5 4.032e-05
6 169_6 0
7 169_7 0.00057096
8 169_8 6.12e-05
9 169_9 0.00015528
*RES
1 *169 169_1 1.30667
2 169_1 169_2 0.7
3 169_2 *170:A 0
4 169_1 169_3 11.6667
5 169_3 169_4 0.233333
6 169_4 *171:A 0
7 169_4 169_5 1.12
8 169_5 169_6 0
9 169_6 *172:A 0
10 169_6 169_7 6.86
11 169_7 169_8 0.7
12 169_8 *173:A 0
13 169_7 169_9 3.31333
14 169_9 *174:A 0
*END
*D_NET *175 0.000732
*CONN
*I *176:Q O *D _285
*I *177:B I *L 0
*I *178:A I *L 0
*I *179:A I *L 0
*I *180:A I *L 0
*I *181:A I *L 0
*CAP
1 175_1 0.0001632
2 175_2 0.00017544
3 175_3 4.08e-05
4 175_4 8.4e-06
5 175_5 2.688e-05
6 175_6 0.00014184
7 175_7 2.04e-05
8 175_8 0.00015504
*RES
1 *176:Q 175_1 1.86667
2 175_1 175_2 2.00667
3 175_2 *177:B 0
4 175_1 175_3 0.466667
5 175_3 *178:A 0
6 175_1 175_4 0.233333
7 175_4 175_5 0.746667
8 175_5 *179:A 0
9 175_4 175_6 2.94
10 175_6 175_7 0.233333
11 175_7 *180:A 0
12 175_7 175_8 1.77333
13 175_8 *181:A 0
*END
*D_NET *182 0.0008544
*CONN
*I *183:Y O *D _128
*I *184:A I *L 0
*I *185:A I *L 0
*I *186:A I *L 0
*I *187:A I *L 0
*CAP
1 182_1 2.04e-05
2 182_2 9.024e-05
3 182_3 0.0002916
4 182_4 0.00036576
5 182_5 8.64e-05
*RES
1 *183:Y 182_1 0.233333
2 182_1 182_2 0.746667
3 182_2 *184:A 0
4 182_1 182_3 4.43333
5 182_3 *185:A 0
6 182_1 182_4 6.16
7 182_4 *186:A 0
8 182_1 182_5 0.56
9 182_5 *187:A 0
*END
*D_NET *188 0.00042384
*CONN
*I *189:Y O *D BUFX2
*I *190:B I *L 0
*I *191:A I *L 0
*I *192:B I *L 0
*I *193:A I *L 0
*CAP
1 188_1 0.0003096
2 188_2 0
3 188_3 4.704e-05
4 188_4 0
5 188_5 2.688e-05
6 188_6 0
7 188_7 4.032e-05
*RES
1 *189:Y 188_1 7.93333
2 188_1 188_2 0
3 188_2 *190:B 0
4 188_1 188_3 1.30667
5 188_3 188_4 0
6 188_4 *191:A 0
7 188_3 188_5 0.746667
8 188_5 188_6 0
9 188_6 *192:B 0
10 188_5 188_7 1.12
11 188_7 *193:A 0
*END
*D_NET *194 0.00081768
*CONN
*I *195:Q O *D _283
*I *196:B I *L 0
*I *197:A I *L 0
*I *198:A I *L 0
*I *199:B I *L 0
*CAP
1 194_1 8.64e-05
2 194_2 0.0003852
3 194_3 2.04e-05
4 194_4 0.0002652
5 194_5 1.344e-05
6 194_6 4.704e-05
*RES
1 *195:Q 194_1 0.56
2 194_1 *196:B 0
3 194_1 194_2 7.7
4 194_2 194_3 0.233333
5 194_3 *197:A 0
6 194_3 194_4 3.03333
7 194_4 194_5 0.373333
8 194_5 *198:A 0
9 194_4 194_6 1.30667
10 194_6 *199:B 0
*END
*D_NET *200 0.00109176
*CONN
*I *201:Q O *D _281
*I *202:B I *L 0
*I *203:A I *L 0
*I *204:B I *L 0
*I *205:A I *L 0
*CAP
1 200_1 2.688e-05
2 200_2 0
3 200_3 2.688e-05
4 200_4 4.08e-05
5 200_5 9.408e-05
6 200_6 4.92e-05
7 200_7 0.00085392
*RES
1 *201:Q 200_1 0.746667
2 200_1 200_2 0
3 200_2 *202:B 0
4 200_1 200_3 0.746667
5 200_3 200_4 0.466667
6 200_4 *203:A 0
7 200_3 200_5 2.61333
8 200_5 200_6 0.7
9 200_6 *204:B 0
10 200_5 200_7 13.72
11 200_7 *205:A 0
*END
*D_NET *206 0.00069888
*CONN
*I *207:Q O *D _286
*I *208:A I *L 0
*I *209:C I *L 0
*I *210:A I *L 0
*I *211:A I *L 0
*CAP
1 206_1 0.0001152
2 206_2 0.0001632
3 206_3 0.0002244
4 206_4 2.04e-05
5 206_5 0.00013536
6 206_6 4.032e-05
*RES
1 *207:Q 206_1 0.746667
2 206_1 *208:A 0
3 206_1 206_2 1.86667
4 206_2 206_3 2.56667
5 206_3 206_4 0.233333
6 206_4 *209:C 0
7 206_4 206_5 2.42667
8 206_5 *210:A 0
9 206_2 206_6 1.12
10 206_6 *211:A 0
*END
*D_NET *212 0.00114912
*CONN
*I *213:Q O *D _287
*I *214:A I *L 0
*I *215:C I *L 0
*I *216:C I *L 0
*I *217:A I *L 0
*CAP
1 212_1 0.00021048
2 212_2 4.08e-05
3 212_3 0.00012576
4 212_4 0.00014856
5 212_5 0.0002124
6 212_6 0.0001068
7 212_7 0.00030432
*RES
1 *213:Q 212_1 2.84667
2 212_1 212_2 0.466667
3 212_2 *214:A 0
4 212_1 212_3 1.29333
5 212_3 212_4 3.12667
6 212_4 *215:C 0
7 212_3 212_5 2.56667
8 212_5 212_6 0.793333
9 212_6 *216:C 0
10 212_5 212_7 5.78667
11 212_7 *217:A 0
*END
*D_NET *218 0.00127584
*CONN
*I *219:Q O *D _288
*I *220:A I *L 0
*I *221:A I *L 0
*I *222:C I *L 0
*I *223:A I *L 0
*CAP
1 218_1 3.36e-05
2 218_2 0.0002784
3 218_3 0.00036
4 218_4 8.64e-05
5 218_5 0.00042264
6 218_6 6.12e-05
7 218_7 3.36e-05
*RES
1 *219:Q 218_1 0.933333
2 218_1 218_2 2.61333
3 218_2 *220:A 0
4 218_1 218_3 3.54667
5 218_3 218_4 0.56
6 218_4 *221:A 0
7 218_3 218_5 5.97333
8 218_5 218_6 0.7
9 218_6 *222:C 0
10 218_5 218_7 0.933333
11 218_7 *223:A 0
*END
*D_NET *224 0.00069576
*CONN
*I *225:Q O *D _289
*I *226:B I *L 0
*I *227:A I *L 0
*I *228:A I *L 0
*I *229:A I *L 0
*CAP
1 224_1 0.0001152
2 224_2 0.0002364
3 224_3 4.08e-05
4 224_4 0.00019488
5 224_5 8.808e-05
6 224_6 2.04e-05
*RES
1 *225:Q 224_1 0.746667
2 224_1 *226:B 0
3 224_1 224_2 4.9
4 224_2 224_3 0.466667
5 224_3 *227:A 0
6 224_2 224_4 5.41333
7 224_4 224_5 1.44667
8 224_5 *228:A 0
9 224_4 224_6 0.233333
10 224_6 *229:A 0
*END
*D_NET *230 0.00120312
*CONN
*I *231:Q O *D _292
*I *232:A I *L 0
*I *233:A I *L 0
*I *234:A I *L 0
*I *235:A I *L 0
*CAP
1 230_1 0.0003276
2 230_2 0.0001152
3 230_3 0.0004284
4 230_4 2.04e-05
5 230_5 0.00021696
6 230_6 9.456e-05
*RES
1 *231:Q 230_1 3.03333
2 230_1 *232:A 0
3 230_1 230_2 0.746667
4 230_2 230_3 4.9
5 230_3 230_4 0.233333
6 230_4 *233:A 0
7 230_4 230_5 3.36
8 230_5 *234:A 0
9 230_2 230_6 1.96
10 230_6 *235:A 0
*END
*D_NET *236 0.00082392
*CONN
*I *237:Q O *D _293
*I *238:A I *L 0
*I *239:B I *L 0
*I *240:A I *L 0
*I *241:A I *L 0
*CAP
1 236_1 0.00018912
2 236_2 6.12e-05
3 236_3 5.76e-05
4 236_4 8.064e-05
5 236_5 0.0002736
6 236_6 0.00016176
*RES
1 *237:Q 236_1 2.8