* XSpice netlist created from SPICE and liberty sources by spi2xspice.py
*SPICE netlist created from verilog structural netlist module basic by vlog2Spice (qflow)
** Start of included library /usr/local/share/qflow/tech/osu035/osu035_stdcells.sp
** End of included library /usr/local/share/qflow/tech/osu035/osu035_stdcells.sp
.subckt basic a_vdd a_gnd a_a a_gnd a_o a_vdd
A_1_ [a] _0_ d_lut_INVX1
A_2_ [_0_] o d_lut_BUFX2

.model todig_3v3 adc_bridge(in_high=2.1999999999999997 in_low=1.0999999999999999 rise_delay=10n fall_delay=10n)
.model toana_3v3 dac_bridge(out_high=3.3 out_low=0)

.model ddflop d_dff(ic=0 rise_delay=1n fall_delay=1n)
.model dzero d_pulldown(load=1p)
.model done d_pullup(load=1p)

AA2D1 [a_vdd] [vdd] todig_3v3
AA2D2 [a_gnd] [gnd] todig_3v3
AA2D3 [a_a] [a] todig_3v3
AD2A1 [o] [a_o] toana_3v3

.ends

* INVX1 (!A)
.model d_lut_INVX1 d_lut (rise_delay=1n fall_delay=1n input_load=1p
+ table_values "10")
* BUFX2 A
.model d_lut_BUFX2 d_lut (rise_delay=1n fall_delay=1n input_load=1p
+ table_values "01")
.end
