*SPEF "IEEE 1481.1999"
*DESIGN "mux_using_if"
*DATE "21:08:28 Wednesday June 24, 2020"
*VENDOR "unknown"
*PROGRAM "qrouter"
*VERSION "unknown"
*DESIGN_FLOW "qflow"
*DIVIDER /
*DELIMITER :
*BUS_DELIMITER <>
*T_UNIT 1 PS
*C_UNIT 1 FF
*R_UNIT 1 OHM
*L_UNIT 1 HENRY

*NAME_MAP
*1 sel
*2 _4_
*3 _5_
*4 _0_
*5 _3_
*6 _5_
*7 din_1
*8 _4_
*9 _1_
*10 _4_
*11 _5_
*12 _2_
*13 _5_
*14 _6_
*15 mux_out
*16 _6_
*17 ERROR

*PORTS
*1 I
*7 I

*D_NET *1 0.00013512
*CONN
*P *1 O
*I *2:B I *L 0
*I *3:A I *L 0
*CAP
1 1_1 4.032e-05
2 1_2 9.48e-05
3 1_3 0
*RES
1 *1 1_1 1.12
2 1_1 1_2 1.63333
3 1_2 *2:B 0
4 1_1 1_3 0
5 1_3 *3:A 0
*END
*D_NET *4 8.64e-05
*CONN
*I *5:Y O *D _3
*I *6:B I *L 0
*CAP
1 4_1 8.64e-05
*RES
1 *5:Y 4_1 0.56
2 4_1 *6:B 0
*END
*D_NET *7 0.00010824
*CONN
*P *7 O
*I *8:A I *L 0
*CAP
1 7_1 0.00010824
*RES
1 *7 7_1 2.00667
2 7_1 *8:A 0
*END
*D_NET *9 0.0001584
*CONN
*I *10:Y O *D _4
*I *11:C I *L 0
*CAP
1 9_1 0.0001584
*RES
1 *10:Y 9_1 1.02667
2 9_1 *11:C 0
*END
*D_NET *12 7.44e-05
*CONN
*I *13:Y O *D _5
*I *14:A I *L 0
*CAP
1 12_1 7.44e-05
*RES
1 *13:Y 12_1 1.4
2 12_1 *14:A 0
*END
*D_NET *15 0.0001152
*CONN
*I *16:Y O *D _6
*I *17:ERROR I *L 0
*CAP
1 15_1 0.0001152
*RES
1 *16:Y 15_1 0.746667
2 15_1 *17:ERROR 0
*END
